version 3
run General-0-20241031-14:02:10-3052
attr configname General
attr datetime 20241031-14:02:10
attr datetimef 20241031-140210
attr experiment General
attr inifile omnetpp.ini
attr iterationvars ""
attr iterationvarsd ""
attr iterationvarsf ""
attr measurement ""
attr network wirelessp2p
attr processid 3052
attr repetition 0
attr replication #0
attr resultdir results
attr runnumber 0
attr seedset 0
config image-path ../../inet4.5/images
config network wirelessp2p
config sim-time-limit 20s
config *host*.ipv4.arp.typename GlobalArp
config *.host*.forwarding true
config .configurator.config "xmldoc(\"C:/Users/zahra/Downloads/omnetpp-6.0.3-windows-x86_64/omnetpp-6.0.3/samples/WirelessP2P/simulations/config.xml\")"
config *.host*.numApps 2
config *.host*.app[0].typename UdpBasicApp
config *.host*.app[0].destAddresses "\"host1 host2 host3 host4 host5\""
config *.host*.app[0].messageLength 1000B
config *.host*.app[0].sendInterval exponential(12ms)
config *.host*.app[0].packetName "\"UDPData\""
config *.host*.app[0].destPort 5000
config *.host*.app[0].recordStats true
config *.host*.app[0].priority 2
config *.host*.app[1].typename UdpSink
config *.host*.app[1].localPort 5000
config *.host*.app[1].priority 1
config *.host*.wlan.typename AckingWirelessInterface
config *.host*.wlan.radio.typename GenericRadio
config *.host*.wlan.radio.transmitter.communicationRange 500m
config *.host*.wlan.mac.typename CsmacCaMac
config *.host*.wlan.mac.ackTimeout 600us
config *.host*.wlan.mac.rtsCtsThreshold 500B
config *.host*.wlan.mac.reportCollisions true
config *.host*.wlan.mac.numCollisions.record true
config *.host*.wlan.mac.recordScalar true
config *.host*.wlan.queue.typename DropTailQueue
config *.host*.wlan.queue.packetCapacity 10
config *.host*.**.bitrate 54Mbps
config *.host*.recordScalar true
config *.host*.app[*].recordScalar true
config *.host*.wlan.radio.numReceivedFramesWithInterference.record true
config *.host*.app[*].recordScalar true
config *.visualizer.packetDropVisualizer.displayPacketDrops true
config *.visualizer.packetDropVisualizer.lineColor "\"red\""
config *.visualizer.packetFlowVisualizer.displayPackets true
config *.visualizer.packetFlowVisualizer.packetFilter "\"UDPData\""
config *.visualizer.packetFlowVisualizer.lineColor "\"blue\""
config *.visualizer.packetFlowVisualizer.lineWidth 2
config *.visualizer.packetFlowVisualizer.lineSpeed 50

par wirelessp2p.visualizer.sceneVisualizer typename "\"inet.visualizer.canvas.scene.SceneCanvasVisualizer\""
par wirelessp2p.visualizer.sceneVisualizer visualizationTargetModule "\"^.^\""
par wirelessp2p.visualizer.sceneVisualizer visualizationSubjectModule "\"^.^\""
par wirelessp2p.visualizer.sceneVisualizer tags "\"\""
par wirelessp2p.visualizer.sceneVisualizer physicalEnvironmentModule "\"physicalEnvironment\""
par wirelessp2p.visualizer.sceneVisualizer networkNodeVisualizerModule "\"^.networkNodeVisualizer\""
par wirelessp2p.visualizer.sceneVisualizer axisLength "nan m"
attr mutable ""
attr unit m
par wirelessp2p.visualizer.sceneVisualizer animationSpeed 0
par wirelessp2p.visualizer.sceneVisualizer sceneMinX "nan m"
attr unit m
par wirelessp2p.visualizer.sceneVisualizer sceneMinY "nan m"
attr unit m
par wirelessp2p.visualizer.sceneVisualizer sceneMinZ "nan m"
attr unit m
par wirelessp2p.visualizer.sceneVisualizer sceneMaxX "nan m"
attr unit m
par wirelessp2p.visualizer.sceneVisualizer sceneMaxY "nan m"
attr unit m
par wirelessp2p.visualizer.sceneVisualizer sceneMaxZ "nan m"
attr unit m
par wirelessp2p.visualizer.sceneVisualizer zIndex 0
par wirelessp2p.visualizer.sceneVisualizer viewAngle "\"x right y down z out\""
attr mutable ""
par wirelessp2p.visualizer.sceneVisualizer viewScale "\"1 1\""
attr mutable ""
par wirelessp2p.visualizer.sceneVisualizer viewTranslation "\"0 0\""
attr mutable ""
par wirelessp2p.visualizer.sceneVisualizer descriptionFigure "\"\""
par wirelessp2p.visualizer.physicalEnvironmentVisualizer typename "\"inet.visualizer.canvas.environment.PhysicalEnvironmentCanvasVisualizer\""
par wirelessp2p.visualizer.physicalEnvironmentVisualizer visualizationTargetModule "\"^.^\""
par wirelessp2p.visualizer.physicalEnvironmentVisualizer visualizationSubjectModule "\"^.^\""
par wirelessp2p.visualizer.physicalEnvironmentVisualizer tags "\"\""
par wirelessp2p.visualizer.physicalEnvironmentVisualizer physicalEnvironmentModule "\"physicalEnvironment\""
par wirelessp2p.visualizer.physicalEnvironmentVisualizer displayObjects true
par wirelessp2p.visualizer.physicalEnvironmentVisualizer zIndex 0
par wirelessp2p.visualizer.networkNodeVisualizer typename "\"inet.visualizer.canvas.scene.NetworkNodeCanvasVisualizer\""
par wirelessp2p.visualizer.networkNodeVisualizer visualizationTargetModule "\"^.^\""
par wirelessp2p.visualizer.networkNodeVisualizer visualizationSubjectModule "\"^.^\""
par wirelessp2p.visualizer.networkNodeVisualizer tags "\"\""
par wirelessp2p.visualizer.networkNodeVisualizer nodeFilter "\"*\""
attr mutable ""
par wirelessp2p.visualizer.networkNodeVisualizer annotationSpacing 4
par wirelessp2p.visualizer.networkNodeVisualizer placementPenalty 10
par wirelessp2p.visualizer.networkNodeVisualizer zIndex 0
par wirelessp2p.visualizer.networkConnectionVisualizer typename "\"inet.visualizer.canvas.scene.NetworkConnectionCanvasVisualizer\""
par wirelessp2p.visualizer.networkConnectionVisualizer visualizationTargetModule "\"^.^\""
par wirelessp2p.visualizer.networkConnectionVisualizer visualizationSubjectModule "\"^.^\""
par wirelessp2p.visualizer.networkConnectionVisualizer tags "\"\""
par wirelessp2p.visualizer.networkConnectionVisualizer displayNetworkConnections true
par wirelessp2p.visualizer.networkConnectionVisualizer nodeFilter "\"\""
attr mutable ""
par wirelessp2p.visualizer.networkConnectionVisualizer lineColor "\"black\""
par wirelessp2p.visualizer.networkConnectionVisualizer lineStyle "\"solid\""
par wirelessp2p.visualizer.networkConnectionVisualizer lineWidth 1
par wirelessp2p.visualizer.networkConnectionVisualizer zIndex 0
par wirelessp2p.visualizer.mobilityVisualizer typename "\"inet.visualizer.canvas.mobility.MobilityCanvasVisualizer\""
par wirelessp2p.visualizer.mobilityVisualizer visualizationTargetModule "\"^.^\""
par wirelessp2p.visualizer.mobilityVisualizer visualizationSubjectModule "\"^.^\""
par wirelessp2p.visualizer.mobilityVisualizer tags "\"\""
par wirelessp2p.visualizer.mobilityVisualizer networkNodeVisualizerModule "\"^.networkNodeVisualizer\""
par wirelessp2p.visualizer.mobilityVisualizer displayMobility true
par wirelessp2p.visualizer.mobilityVisualizer animationSpeed 0
par wirelessp2p.visualizer.mobilityVisualizer moduleFilter "\"**.mobility\""
attr mutable ""
par wirelessp2p.visualizer.mobilityVisualizer displayPositions false
par wirelessp2p.visualizer.mobilityVisualizer positionCircleRadius 4
par wirelessp2p.visualizer.mobilityVisualizer positionCircleLineWidth 1
par wirelessp2p.visualizer.mobilityVisualizer positionCircleLineColor "\"dark\""
attr enum light,dark
par wirelessp2p.visualizer.mobilityVisualizer positionCircleFillColor "\"dark\""
attr enum light,dark
par wirelessp2p.visualizer.mobilityVisualizer displayOrientations false
par wirelessp2p.visualizer.mobilityVisualizer orientationPieRadius 32
par wirelessp2p.visualizer.mobilityVisualizer orientationPieSize 0.2
par wirelessp2p.visualizer.mobilityVisualizer orientationPieOpacity 0.25
par wirelessp2p.visualizer.mobilityVisualizer orientationLineColor "\"black\""
par wirelessp2p.visualizer.mobilityVisualizer orientationLineStyle "\"solid\""
par wirelessp2p.visualizer.mobilityVisualizer orientationLineWidth 1
par wirelessp2p.visualizer.mobilityVisualizer orientationFillColor "\"blue\""
par wirelessp2p.visualizer.mobilityVisualizer displayVelocities false
par wirelessp2p.visualizer.mobilityVisualizer velocityArrowScale 1
par wirelessp2p.visualizer.mobilityVisualizer velocityLineColor "\"black\""
par wirelessp2p.visualizer.mobilityVisualizer velocityLineStyle "\"solid\""
par wirelessp2p.visualizer.mobilityVisualizer velocityLineWidth 1
par wirelessp2p.visualizer.mobilityVisualizer displayMovementTrails false
par wirelessp2p.visualizer.mobilityVisualizer movementTrailLineColor "\"dark\""
attr enum light,dark
par wirelessp2p.visualizer.mobilityVisualizer movementTrailLineStyle "\"solid\""
par wirelessp2p.visualizer.mobilityVisualizer movementTrailLineWidth 1
par wirelessp2p.visualizer.mobilityVisualizer trailLength 100
par wirelessp2p.visualizer.mobilityVisualizer zIndex 0
par wirelessp2p.visualizer.statisticVisualizer typename "\"inet.visualizer.canvas.common.StatisticCanvasVisualizer\""
par wirelessp2p.visualizer.statisticVisualizer visualizationTargetModule "\"^.^\""
par wirelessp2p.visualizer.statisticVisualizer visualizationSubjectModule "\"^.^\""
par wirelessp2p.visualizer.statisticVisualizer tags "\"\""
par wirelessp2p.visualizer.statisticVisualizer networkNodeVisualizerModule "\"^.networkNodeVisualizer\""
par wirelessp2p.visualizer.statisticVisualizer displayStatistics true
par wirelessp2p.visualizer.statisticVisualizer signalName "\"\""
par wirelessp2p.visualizer.statisticVisualizer statisticName "\"\""
par wirelessp2p.visualizer.statisticVisualizer statisticUnit "\"\""
par wirelessp2p.visualizer.statisticVisualizer statisticExpression "\"\""
par wirelessp2p.visualizer.statisticVisualizer sourceFilter "\"**\""
attr mutable ""
par wirelessp2p.visualizer.statisticVisualizer format "\"%n: %v %u\""
attr mutable ""
par wirelessp2p.visualizer.statisticVisualizer unit "\"\""
par wirelessp2p.visualizer.statisticVisualizer font "\"<default>\""
par wirelessp2p.visualizer.statisticVisualizer textColor "\"black\""
par wirelessp2p.visualizer.statisticVisualizer backgroundColor "\"white\""
par wirelessp2p.visualizer.statisticVisualizer opacity 1
par wirelessp2p.visualizer.statisticVisualizer placementHint "\"top\""
par wirelessp2p.visualizer.statisticVisualizer placementPriority 0
par wirelessp2p.visualizer.statisticVisualizer zIndex 10
par wirelessp2p.visualizer.statisticVisualizer propertyName "\"\""
par wirelessp2p.visualizer.statisticVisualizer propertyIndex "\"\""
par wirelessp2p.visualizer.infoVisualizer typename "\"inet.visualizer.canvas.common.InfoCanvasVisualizer\""
par wirelessp2p.visualizer.infoVisualizer visualizationTargetModule "\"^.^\""
par wirelessp2p.visualizer.infoVisualizer visualizationSubjectModule "\"^.^\""
par wirelessp2p.visualizer.infoVisualizer tags "\"\""
par wirelessp2p.visualizer.infoVisualizer networkNodeVisualizerModule "\"^.networkNodeVisualizer\""
par wirelessp2p.visualizer.infoVisualizer displayInfos true
par wirelessp2p.visualizer.infoVisualizer modules "\"\""
attr mutable ""
par wirelessp2p.visualizer.infoVisualizer format "\"%t\""
attr mutable ""
par wirelessp2p.visualizer.infoVisualizer font "\"<default>\""
par wirelessp2p.visualizer.infoVisualizer textColor "\"black\""
par wirelessp2p.visualizer.infoVisualizer backgroundColor "\"white\""
par wirelessp2p.visualizer.infoVisualizer opacity 1
par wirelessp2p.visualizer.infoVisualizer placementHint "\"top\""
par wirelessp2p.visualizer.infoVisualizer placementPriority 0
par wirelessp2p.visualizer.infoVisualizer zIndex 10
par wirelessp2p.visualizer.energyStorageVisualizer typename "\"inet.visualizer.canvas.power.EnergyStorageCanvasVisualizer\""
par wirelessp2p.visualizer.energyStorageVisualizer visualizationTargetModule "\"^.^\""
par wirelessp2p.visualizer.energyStorageVisualizer visualizationSubjectModule "\"^.^\""
par wirelessp2p.visualizer.energyStorageVisualizer tags "\"\""
par wirelessp2p.visualizer.energyStorageVisualizer networkNodeVisualizerModule "\"^.networkNodeVisualizer\""
par wirelessp2p.visualizer.energyStorageVisualizer displayEnergyStorages false
par wirelessp2p.visualizer.energyStorageVisualizer energyStorageFilter "\"**\""
par wirelessp2p.visualizer.energyStorageVisualizer color "\"green\""
par wirelessp2p.visualizer.energyStorageVisualizer width 8
par wirelessp2p.visualizer.energyStorageVisualizer height 24
par wirelessp2p.visualizer.energyStorageVisualizer spacing 2
par wirelessp2p.visualizer.energyStorageVisualizer placementHint "\"right\""
par wirelessp2p.visualizer.energyStorageVisualizer placementPriority 0
par wirelessp2p.visualizer.energyStorageVisualizer zIndex 10
par wirelessp2p.visualizer.mediumVisualizer typename "\"inet.visualizer.canvas.physicallayer.MediumCanvasVisualizer\""
par wirelessp2p.visualizer.mediumVisualizer visualizationTargetModule "\"^.^\""
par wirelessp2p.visualizer.mediumVisualizer visualizationSubjectModule "\"^.^\""
par wirelessp2p.visualizer.mediumVisualizer tags "\"\""
par wirelessp2p.visualizer.mediumVisualizer mediumModule "\"radioMedium\""
par wirelessp2p.visualizer.mediumVisualizer networkNodeVisualizerModule "\"^.networkNodeVisualizer\""
par wirelessp2p.visualizer.mediumVisualizer nodeFilter "\"*\""
attr mutable ""
par wirelessp2p.visualizer.mediumVisualizer interfaceFilter "\"*\""
attr mutable ""
par wirelessp2p.visualizer.mediumVisualizer packetFilter "(omnetpp::cValueHolder)holder: \"*\""
attr mutable ""
par wirelessp2p.visualizer.mediumVisualizer displaySignals false
par wirelessp2p.visualizer.mediumVisualizer signalColor "\"dark\""
attr enum light,dark
par wirelessp2p.visualizer.mediumVisualizer signalPropagationAnimationSpeed "nan "
attr mutable ""
par wirelessp2p.visualizer.mediumVisualizer signalPropagationAnimationTime 1s
attr unit s
par wirelessp2p.visualizer.mediumVisualizer signalPropagationAdditionalTime 0s
attr unit s
par wirelessp2p.visualizer.mediumVisualizer signalTransmissionAnimationSpeed "nan "
attr mutable ""
par wirelessp2p.visualizer.mediumVisualizer signalTransmissionAnimationTime 1s
attr unit s
par wirelessp2p.visualizer.mediumVisualizer signalAnimationSpeedChangeTimeMode "\"realTime\""
attr enum realTime,animationTime,simulationTime
par wirelessp2p.visualizer.mediumVisualizer signalAnimationSpeedChangeTime 1s
attr unit s
par wirelessp2p.visualizer.mediumVisualizer displaySignalDepartures false
par wirelessp2p.visualizer.mediumVisualizer signalDepartureImage "\"misc/signal_departure.png\""
par wirelessp2p.visualizer.mediumVisualizer signalDeparturePlacementHint "\"topCenter\""
par wirelessp2p.visualizer.mediumVisualizer signalDeparturePlacementPriority 1
par wirelessp2p.visualizer.mediumVisualizer displaySignalArrivals false
par wirelessp2p.visualizer.mediumVisualizer signalArrivalImage "\"misc/signal_arrival.png\""
par wirelessp2p.visualizer.mediumVisualizer signalArrivalPlacementHint "\"topCenter\""
par wirelessp2p.visualizer.mediumVisualizer signalArrivalPlacementPriority -1
par wirelessp2p.visualizer.mediumVisualizer displayCommunicationRanges false
par wirelessp2p.visualizer.mediumVisualizer communicationRangeLineColor "\"blue\""
par wirelessp2p.visualizer.mediumVisualizer communicationRangeLineStyle "\"solid\""
par wirelessp2p.visualizer.mediumVisualizer communicationRangeLineWidth 1
par wirelessp2p.visualizer.mediumVisualizer displayInterferenceRanges false
par wirelessp2p.visualizer.mediumVisualizer interferenceRangeLineColor "\"gray\""
par wirelessp2p.visualizer.mediumVisualizer interferenceRangeLineStyle "\"solid\""
par wirelessp2p.visualizer.mediumVisualizer interferenceRangeLineWidth 1
par wirelessp2p.visualizer.mediumVisualizer autoPowerAxis true
par wirelessp2p.visualizer.mediumVisualizer signalMinPower "inf dBmW"
attr unit dBmW
par wirelessp2p.visualizer.mediumVisualizer signalMaxPower 0dBmW
attr unit dBmW
par wirelessp2p.visualizer.mediumVisualizer signalMinPowerDensity "inf dBmWpMHz"
attr unit dBmWpMHz
par wirelessp2p.visualizer.mediumVisualizer signalMaxPowerDensity "-inf dBmWpMHz"
attr unit dBmWpMHz
par wirelessp2p.visualizer.mediumVisualizer autoTimeAxis true
par wirelessp2p.visualizer.mediumVisualizer signalMinTime 0s
attr unit s
par wirelessp2p.visualizer.mediumVisualizer signalMaxTime 0s
attr unit s
par wirelessp2p.visualizer.mediumVisualizer autoFrequencyAxis true
par wirelessp2p.visualizer.mediumVisualizer signalMinFrequency "inf Hz"
attr unit Hz
par wirelessp2p.visualizer.mediumVisualizer signalMaxFrequency "-inf Hz"
attr unit Hz
par wirelessp2p.visualizer.mediumVisualizer displayMainPowerDensityMap false
par wirelessp2p.visualizer.mediumVisualizer mainPowerDensityMapPixmapDensity 1
par wirelessp2p.visualizer.mediumVisualizer mainPowerDensityMapMinX 0
par wirelessp2p.visualizer.mediumVisualizer mainPowerDensityMapMaxX "nan "
par wirelessp2p.visualizer.mediumVisualizer mainPowerDensityMapMinY 0
par wirelessp2p.visualizer.mediumVisualizer mainPowerDensityMapMaxY "nan "
par wirelessp2p.visualizer.mediumVisualizer mainPowerDensityMapZ 0
par wirelessp2p.visualizer.mediumVisualizer mainPowerDensityMapFigureXTickCount 3
par wirelessp2p.visualizer.mediumVisualizer mainPowerDensityMapFigureYTickCount 3
par wirelessp2p.visualizer.mediumVisualizer displayPowerDensityMaps false
par wirelessp2p.visualizer.mediumVisualizer powerDensityMapMode "\"auto\""
attr enum total,signal,auto
par wirelessp2p.visualizer.mediumVisualizer powerDensityMapPixelMode "\"mean\""
attr enum sample,partition,mean
par wirelessp2p.visualizer.mediumVisualizer powerDensityMapApproximationSize 10
par wirelessp2p.visualizer.mediumVisualizer powerDensityMapCenterFrequency "nan Hz"
attr mutable ""
attr unit Hz
par wirelessp2p.visualizer.mediumVisualizer powerDensityMapBandwidth 0Hz
attr mutable ""
attr unit Hz
par wirelessp2p.visualizer.mediumVisualizer powerDensityMapFigureWidth 200
par wirelessp2p.visualizer.mediumVisualizer powerDensityMapFigureHeight 120
par wirelessp2p.visualizer.mediumVisualizer powerDensityMapPixmapWidth 200
par wirelessp2p.visualizer.mediumVisualizer powerDensityMapPixmapHeight 120
par wirelessp2p.visualizer.mediumVisualizer powerDensityMapZ 0
par wirelessp2p.visualizer.mediumVisualizer powerDensityMapFigureXTickCount 3
par wirelessp2p.visualizer.mediumVisualizer powerDensityMapFigureYTickCount 3
par wirelessp2p.visualizer.mediumVisualizer displaySpectrums false
par wirelessp2p.visualizer.mediumVisualizer spectrumMode "\"auto\""
attr enum total,signal,auto
par wirelessp2p.visualizer.mediumVisualizer spectrumFigureWidth 200
par wirelessp2p.visualizer.mediumVisualizer spectrumFigureHeight 120
par wirelessp2p.visualizer.mediumVisualizer spectrumFigureXTickCount 3
par wirelessp2p.visualizer.mediumVisualizer spectrumFigureYTickCount 5
par wirelessp2p.visualizer.mediumVisualizer spectrumFigureInterpolationSize 5
par wirelessp2p.visualizer.mediumVisualizer spectrumPlacementHint "\"bottomCenter\""
par wirelessp2p.visualizer.mediumVisualizer spectrumPlacementPriority -1
par wirelessp2p.visualizer.mediumVisualizer displaySpectrograms false
par wirelessp2p.visualizer.mediumVisualizer spectrogramMode "\"auto\""
attr enum total,signal,auto
par wirelessp2p.visualizer.mediumVisualizer spectrogramPixelMode "\"mean\""
attr enum sample,partition,mean
par wirelessp2p.visualizer.mediumVisualizer spectrogramFigureWidth 200
par wirelessp2p.visualizer.mediumVisualizer spectrogramFigureHeight 120
par wirelessp2p.visualizer.mediumVisualizer spectrogramPixmapWidth 200
par wirelessp2p.visualizer.mediumVisualizer spectrogramPixmapHeight 120
par wirelessp2p.visualizer.mediumVisualizer spectrogramFigureXTickCount 3
par wirelessp2p.visualizer.mediumVisualizer spectrogramFigureYTickCount 5
par wirelessp2p.visualizer.mediumVisualizer spectrogramPlacementHint "\"bottomCenter\""
par wirelessp2p.visualizer.mediumVisualizer spectrogramPlacementPriority -1
par wirelessp2p.visualizer.mediumVisualizer zIndex 0
par wirelessp2p.visualizer.mediumVisualizer signalShape "\"ring\""
attr enum ring,sphere
par wirelessp2p.visualizer.mediumVisualizer signalOpacity 0.5
par wirelessp2p.visualizer.mediumVisualizer signalRingCount 20
par wirelessp2p.visualizer.mediumVisualizer signalRingSize 50m
attr unit m
par wirelessp2p.visualizer.mediumVisualizer signalFadingDistance 50m
attr unit m
par wirelessp2p.visualizer.mediumVisualizer signalFadingFactor 1.2
par wirelessp2p.visualizer.mediumVisualizer signalWaveCount 20
par wirelessp2p.visualizer.mediumVisualizer signalWaveLength 50m
attr unit m
par wirelessp2p.visualizer.mediumVisualizer signalWaveWidth 10m
attr unit m
par wirelessp2p.visualizer.mediumVisualizer signalWaveFadingAnimationSpeedFactor 1
par wirelessp2p.visualizer.mediumVisualizer displayCommunicationHeat false
par wirelessp2p.visualizer.obstacleLossVisualizer typename "\"inet.visualizer.canvas.physicallayer.TracingObstacleLossCanvasVisualizer\""
par wirelessp2p.visualizer.obstacleLossVisualizer visualizationTargetModule "\"^.^\""
par wirelessp2p.visualizer.obstacleLossVisualizer visualizationSubjectModule "\"^.^\""
par wirelessp2p.visualizer.obstacleLossVisualizer tags "\"\""
par wirelessp2p.visualizer.obstacleLossVisualizer displayIntersections false
par wirelessp2p.visualizer.obstacleLossVisualizer intersectionLineColor "\"red\""
par wirelessp2p.visualizer.obstacleLossVisualizer intersectionLineStyle "\"solid\""
par wirelessp2p.visualizer.obstacleLossVisualizer intersectionLineWidth 1
par wirelessp2p.visualizer.obstacleLossVisualizer displayFaceNormalVectors false
par wirelessp2p.visualizer.obstacleLossVisualizer faceNormalLineColor "\"grey\""
par wirelessp2p.visualizer.obstacleLossVisualizer faceNormalLineStyle "\"solid\""
par wirelessp2p.visualizer.obstacleLossVisualizer faceNormalLineWidth 1
par wirelessp2p.visualizer.obstacleLossVisualizer fadeOutMode "\"realTime\""
attr enum realTime,animationTime,simulationTime
par wirelessp2p.visualizer.obstacleLossVisualizer fadeOutTime 1s
attr unit s
par wirelessp2p.visualizer.obstacleLossVisualizer fadeOutAnimationSpeed 0
par wirelessp2p.visualizer.obstacleLossVisualizer zIndex 0
par wirelessp2p.visualizer.packetDropVisualizer typename "\"inet.visualizer.canvas.common.PacketDropCanvasVisualizer\""
par wirelessp2p.visualizer.packetDropVisualizer visualizationTargetModule "\"^.^\""
par wirelessp2p.visualizer.packetDropVisualizer visualizationSubjectModule "\"^.^\""
par wirelessp2p.visualizer.packetDropVisualizer tags "\"\""
par wirelessp2p.visualizer.packetDropVisualizer displayPacketDrops true
par wirelessp2p.visualizer.packetDropVisualizer nodeFilter "\"*\""
attr mutable ""
par wirelessp2p.visualizer.packetDropVisualizer interfaceFilter "\"*\""
attr mutable ""
par wirelessp2p.visualizer.packetDropVisualizer packetFilter "(omnetpp::cValueHolder)holder: \"*\""
attr mutable ""
par wirelessp2p.visualizer.packetDropVisualizer detailsFilter "\"*\""
attr mutable ""
par wirelessp2p.visualizer.packetDropVisualizer icon "\"msg/packet_s\""
par wirelessp2p.visualizer.packetDropVisualizer iconTintAmount 1
par wirelessp2p.visualizer.packetDropVisualizer iconTintColor "\"dark\""
par wirelessp2p.visualizer.packetDropVisualizer labelFormat "\"%n\""
attr mutable ""
par wirelessp2p.visualizer.packetDropVisualizer labelFont "\"<default>\""
par wirelessp2p.visualizer.packetDropVisualizer labelColor "\"black\""
par wirelessp2p.visualizer.packetDropVisualizer fadeOutMode "\"realTime\""
attr enum realTime,animationTime,simulationTime
par wirelessp2p.visualizer.packetDropVisualizer fadeOutTime 1s
attr unit s
par wirelessp2p.visualizer.packetDropVisualizer fadeOutAnimationSpeed 0
par wirelessp2p.visualizer.packetDropVisualizer zIndex 10
par wirelessp2p.visualizer.packetDropVisualizer dx 32
par wirelessp2p.visualizer.packetDropVisualizer dy 64
par wirelessp2p.visualizer.packetFlowVisualizer typename "\"inet.visualizer.canvas.flow.PacketFlowCanvasVisualizer\""
par wirelessp2p.visualizer.packetFlowVisualizer visualizationTargetModule "\"^.^\""
par wirelessp2p.visualizer.packetFlowVisualizer visualizationSubjectModule "\"^.^\""
par wirelessp2p.visualizer.packetFlowVisualizer tags "\"\""
par wirelessp2p.visualizer.packetFlowVisualizer displayRoutes false
par wirelessp2p.visualizer.packetFlowVisualizer startPathSignal "\"packetFlowStarted\""
par wirelessp2p.visualizer.packetFlowVisualizer extendPathSignal "\"packetReceivedFromLower\""
par wirelessp2p.visualizer.packetFlowVisualizer endPathSignal "\"packetFlowEnded\""
par wirelessp2p.visualizer.packetFlowVisualizer nodeFilter "\"*\""
attr mutable ""
par wirelessp2p.visualizer.packetFlowVisualizer packetFilter "(omnetpp::cValueHolder)holder: \"UDPData\""
attr mutable ""
par wirelessp2p.visualizer.packetFlowVisualizer lineColor "\"blue\""
attr enum light,dark
par wirelessp2p.visualizer.packetFlowVisualizer lineStyle "\"dashed\""
par wirelessp2p.visualizer.packetFlowVisualizer lineWidth 2
par wirelessp2p.visualizer.packetFlowVisualizer lineSmooth false
par wirelessp2p.visualizer.packetFlowVisualizer lineShift 16
par wirelessp2p.visualizer.packetFlowVisualizer lineShiftMode "\"normal\""
par wirelessp2p.visualizer.packetFlowVisualizer lineContactSpacing 3
par wirelessp2p.visualizer.packetFlowVisualizer lineContactMode "\"rectangular\""
attr enum circular,rectangular
par wirelessp2p.visualizer.packetFlowVisualizer labelFormat "\"%L %p pk (%l)\""
par wirelessp2p.visualizer.packetFlowVisualizer labelFont "\"<default>, 8px\""
par wirelessp2p.visualizer.packetFlowVisualizer labelColor "\"\""
par wirelessp2p.visualizer.packetFlowVisualizer fadeOutMode "\"realTime\""
attr enum realTime,animationTime,simulationTime
par wirelessp2p.visualizer.packetFlowVisualizer fadeOutTime 0s
attr unit s
par wirelessp2p.visualizer.packetFlowVisualizer fadeOutAnimationSpeed 0
par wirelessp2p.visualizer.packetFlowVisualizer zIndex 4
par wirelessp2p.visualizer.queueVisualizer typename "\"inet.visualizer.canvas.common.QueueCanvasVisualizer\""
par wirelessp2p.visualizer.queueVisualizer visualizationTargetModule "\"^.^\""
par wirelessp2p.visualizer.queueVisualizer visualizationSubjectModule "\"^.^\""
par wirelessp2p.visualizer.queueVisualizer tags "\"\""
par wirelessp2p.visualizer.queueVisualizer networkNodeVisualizerModule "\"^.networkNodeVisualizer\""
par wirelessp2p.visualizer.queueVisualizer displayQueues false
par wirelessp2p.visualizer.queueVisualizer queueFilter "\"**\""
par wirelessp2p.visualizer.queueVisualizer color "\"blue\""
par wirelessp2p.visualizer.queueVisualizer width 8
par wirelessp2p.visualizer.queueVisualizer height 24
par wirelessp2p.visualizer.queueVisualizer spacing 2
par wirelessp2p.visualizer.queueVisualizer placementHint "\"right\""
par wirelessp2p.visualizer.queueVisualizer placementPriority 0
par wirelessp2p.visualizer.queueVisualizer zIndex 10
par wirelessp2p.visualizer.gateScheduleVisualizer typename "\"inet.visualizer.canvas.common.GateScheduleCanvasVisualizer\""
par wirelessp2p.visualizer.gateScheduleVisualizer visualizationTargetModule "\"^.^\""
par wirelessp2p.visualizer.gateScheduleVisualizer visualizationSubjectModule "\"^.^\""
par wirelessp2p.visualizer.gateScheduleVisualizer tags "\"\""
par wirelessp2p.visualizer.gateScheduleVisualizer networkNodeVisualizerModule "\"^.networkNodeVisualizer\""
par wirelessp2p.visualizer.gateScheduleVisualizer displayGateSchedules false
par wirelessp2p.visualizer.gateScheduleVisualizer labelFormat "\"%i %D\""
par wirelessp2p.visualizer.gateScheduleVisualizer gateFilter "\"**\""
par wirelessp2p.visualizer.gateScheduleVisualizer width 100
par wirelessp2p.visualizer.gateScheduleVisualizer height 8
par wirelessp2p.visualizer.gateScheduleVisualizer spacing 2
par wirelessp2p.visualizer.gateScheduleVisualizer placementHint "\"right\""
par wirelessp2p.visualizer.gateScheduleVisualizer placementPriority 0
par wirelessp2p.visualizer.gateScheduleVisualizer displayDuration 0s
attr mutable ""
attr unit s
par wirelessp2p.visualizer.gateScheduleVisualizer currentTimePosition 50
par wirelessp2p.visualizer.gateScheduleVisualizer zIndex 10
par wirelessp2p.visualizer.radioVisualizer typename "\"inet.visualizer.canvas.physicallayer.RadioCanvasVisualizer\""
par wirelessp2p.visualizer.radioVisualizer visualizationTargetModule "\"^.^\""
par wirelessp2p.visualizer.radioVisualizer visualizationSubjectModule "\"^.^\""
par wirelessp2p.visualizer.radioVisualizer tags "\"\""
par wirelessp2p.visualizer.radioVisualizer networkNodeVisualizerModule "\"^.networkNodeVisualizer\""
par wirelessp2p.visualizer.radioVisualizer displayRadios false
par wirelessp2p.visualizer.radioVisualizer displayRadioMode true
par wirelessp2p.visualizer.radioVisualizer displayReceptionState true
par wirelessp2p.visualizer.radioVisualizer displayTransmissionState true
par wirelessp2p.visualizer.radioVisualizer displayAntennaLobes false
par wirelessp2p.visualizer.radioVisualizer radioFilter "\"**\""
attr mutable ""
par wirelessp2p.visualizer.radioVisualizer radioModeImages "\"block/process_vs block/timer_vs block/wrx_vs block/wtx_vs block/wrxtx_vs block/cogwheel_vs\""
par wirelessp2p.visualizer.radioVisualizer receptionStateImages "\"- - misc/receiving misc/receiving\""
par wirelessp2p.visualizer.radioVisualizer transmissionStateImages "\"- - misc/transmitting\""
par wirelessp2p.visualizer.radioVisualizer width 16
par wirelessp2p.visualizer.radioVisualizer height 16
par wirelessp2p.visualizer.radioVisualizer placementHint "\"bottomRight\""
par wirelessp2p.visualizer.radioVisualizer placementPriority 0
par wirelessp2p.visualizer.radioVisualizer antennaLobeNormalize false
par wirelessp2p.visualizer.radioVisualizer antennaLobeRelativeLabels false
par wirelessp2p.visualizer.radioVisualizer antennaLobePlaneGlobal true
par wirelessp2p.visualizer.radioVisualizer antennaLobePlane "\"view\""
attr enum view,xy,xz,yz
par wirelessp2p.visualizer.radioVisualizer antennaLobeMode "\"logarithmic\""
attr enum logarithmic,linear
par wirelessp2p.visualizer.radioVisualizer antennaLobeLogarithmicBase 10
par wirelessp2p.visualizer.radioVisualizer antennaLobeLogarithmicScale 100
par wirelessp2p.visualizer.radioVisualizer antennaLobeRadius 100
par wirelessp2p.visualizer.radioVisualizer antennaLobeStep 10deg
attr unit deg
par wirelessp2p.visualizer.radioVisualizer antennaLobeOpacity 0.25
par wirelessp2p.visualizer.radioVisualizer antennaLobeLineSmooth true
par wirelessp2p.visualizer.radioVisualizer antennaLobeLineColor "\"black\""
par wirelessp2p.visualizer.radioVisualizer antennaLobeLineStyle "\"solid\""
par wirelessp2p.visualizer.radioVisualizer antennaLobeLineWidth 1
par wirelessp2p.visualizer.radioVisualizer antennaLobeFillColor "\"white\""
par wirelessp2p.visualizer.radioVisualizer zIndex 10
par wirelessp2p.visualizer.physicalLinkVisualizer typename "\"inet.visualizer.canvas.physicallayer.PhysicalLinkCanvasVisualizer\""
par wirelessp2p.visualizer.physicalLinkVisualizer visualizationTargetModule "\"^.^\""
par wirelessp2p.visualizer.physicalLinkVisualizer visualizationSubjectModule "\"^.^\""
par wirelessp2p.visualizer.physicalLinkVisualizer tags "\"\""
par wirelessp2p.visualizer.physicalLinkVisualizer displayLinks false
par wirelessp2p.visualizer.physicalLinkVisualizer activityLevel "\"service\""
attr enum service,peer,protocol
par wirelessp2p.visualizer.physicalLinkVisualizer nodeFilter "\"*\""
attr mutable ""
par wirelessp2p.visualizer.physicalLinkVisualizer interfaceFilter "\"*\""
attr mutable ""
par wirelessp2p.visualizer.physicalLinkVisualizer packetFilter "(omnetpp::cValueHolder)holder: \"*\""
attr mutable ""
par wirelessp2p.visualizer.physicalLinkVisualizer lineColor "\"olive\""
par wirelessp2p.visualizer.physicalLinkVisualizer lineStyle "\"dotted\""
par wirelessp2p.visualizer.physicalLinkVisualizer lineWidth 3
par wirelessp2p.visualizer.physicalLinkVisualizer lineShift 16
par wirelessp2p.visualizer.physicalLinkVisualizer lineShiftMode "\"normal\""
par wirelessp2p.visualizer.physicalLinkVisualizer lineContactSpacing 3
par wirelessp2p.visualizer.physicalLinkVisualizer lineContactMode "\"rectangular\""
attr enum circular,rectangular
par wirelessp2p.visualizer.physicalLinkVisualizer labelFormat "\"%n\""
par wirelessp2p.visualizer.physicalLinkVisualizer labelFont "\"<default>, 8px\""
par wirelessp2p.visualizer.physicalLinkVisualizer labelColor "\"olive\""
par wirelessp2p.visualizer.physicalLinkVisualizer fadeOutMode "\"realTime\""
attr enum realTime,animationTime,simulationTime
par wirelessp2p.visualizer.physicalLinkVisualizer fadeOutTime 1s
attr unit s
par wirelessp2p.visualizer.physicalLinkVisualizer fadeOutAnimationSpeed 0
par wirelessp2p.visualizer.physicalLinkVisualizer holdAnimationTime 0s
attr unit s
par wirelessp2p.visualizer.physicalLinkVisualizer zIndex 1
par wirelessp2p.visualizer.interfaceTableVisualizer typename "\"inet.visualizer.canvas.linklayer.InterfaceTableCanvasVisualizer\""
par wirelessp2p.visualizer.interfaceTableVisualizer visualizationTargetModule "\"^.^\""
par wirelessp2p.visualizer.interfaceTableVisualizer visualizationSubjectModule "\"^.^\""
par wirelessp2p.visualizer.interfaceTableVisualizer tags "\"\""
par wirelessp2p.visualizer.interfaceTableVisualizer networkNodeVisualizerModule "\"^.networkNodeVisualizer\""
par wirelessp2p.visualizer.interfaceTableVisualizer displayInterfaceTables false
par wirelessp2p.visualizer.interfaceTableVisualizer displayWiredInterfacesAtConnections true
par wirelessp2p.visualizer.interfaceTableVisualizer displayBackground false
par wirelessp2p.visualizer.interfaceTableVisualizer nodeFilter "\"*\""
attr mutable ""
par wirelessp2p.visualizer.interfaceTableVisualizer interfaceFilter "\"not(lo*)\""
attr mutable ""
par wirelessp2p.visualizer.interfaceTableVisualizer format "\"%N %\\\\%a%/%l\""
attr mutable ""
par wirelessp2p.visualizer.interfaceTableVisualizer placementHint "\"top\""
par wirelessp2p.visualizer.interfaceTableVisualizer placementPriority 0
par wirelessp2p.visualizer.interfaceTableVisualizer font "\"<default>\""
par wirelessp2p.visualizer.interfaceTableVisualizer textColor "\"#005030\""
par wirelessp2p.visualizer.interfaceTableVisualizer backgroundColor "\"white\""
par wirelessp2p.visualizer.interfaceTableVisualizer opacity 1
par wirelessp2p.visualizer.interfaceTableVisualizer zIndex 10
par wirelessp2p.visualizer.dataLinkVisualizer typename "\"inet.visualizer.canvas.linklayer.DataLinkCanvasVisualizer\""
par wirelessp2p.visualizer.dataLinkVisualizer visualizationTargetModule "\"^.^\""
par wirelessp2p.visualizer.dataLinkVisualizer visualizationSubjectModule "\"^.^\""
par wirelessp2p.visualizer.dataLinkVisualizer tags "\"\""
par wirelessp2p.visualizer.dataLinkVisualizer displayLinks false
par wirelessp2p.visualizer.dataLinkVisualizer activityLevel "\"service\""
attr enum service,peer,protocol
par wirelessp2p.visualizer.dataLinkVisualizer nodeFilter "\"*\""
attr mutable ""
par wirelessp2p.visualizer.dataLinkVisualizer interfaceFilter "\"*\""
attr mutable ""
par wirelessp2p.visualizer.dataLinkVisualizer packetFilter "(omnetpp::cValueHolder)holder: \"*\""
attr mutable ""
par wirelessp2p.visualizer.dataLinkVisualizer lineColor "\"darkcyan\""
par wirelessp2p.visualizer.dataLinkVisualizer lineStyle "\"solid\""
par wirelessp2p.visualizer.dataLinkVisualizer lineWidth 3
par wirelessp2p.visualizer.dataLinkVisualizer lineShift 16
par wirelessp2p.visualizer.dataLinkVisualizer lineShiftMode "\"normal\""
par wirelessp2p.visualizer.dataLinkVisualizer lineContactSpacing 3
par wirelessp2p.visualizer.dataLinkVisualizer lineContactMode "\"rectangular\""
attr enum circular,rectangular
par wirelessp2p.visualizer.dataLinkVisualizer labelFormat "\"%n\""
par wirelessp2p.visualizer.dataLinkVisualizer labelFont "\"<default>, 8px\""
par wirelessp2p.visualizer.dataLinkVisualizer labelColor "\"darkcyan\""
par wirelessp2p.visualizer.dataLinkVisualizer fadeOutMode "\"realTime\""
attr enum realTime,animationTime,simulationTime
par wirelessp2p.visualizer.dataLinkVisualizer fadeOutTime 1s
attr unit s
par wirelessp2p.visualizer.dataLinkVisualizer fadeOutAnimationSpeed 0
par wirelessp2p.visualizer.dataLinkVisualizer holdAnimationTime 0s
attr unit s
par wirelessp2p.visualizer.dataLinkVisualizer zIndex 2
par wirelessp2p.visualizer.linkBreakVisualizer typename "\"inet.visualizer.canvas.linklayer.LinkBreakCanvasVisualizer\""
par wirelessp2p.visualizer.linkBreakVisualizer visualizationTargetModule "\"^.^\""
par wirelessp2p.visualizer.linkBreakVisualizer visualizationSubjectModule "\"^.^\""
par wirelessp2p.visualizer.linkBreakVisualizer tags "\"\""
par wirelessp2p.visualizer.linkBreakVisualizer displayLinkBreaks false
par wirelessp2p.visualizer.linkBreakVisualizer nodeFilter "\"*\""
attr mutable ""
par wirelessp2p.visualizer.linkBreakVisualizer interfaceFilter "\"*\""
attr mutable ""
par wirelessp2p.visualizer.linkBreakVisualizer packetFilter "(omnetpp::cValueHolder)holder: \"*\""
attr mutable ""
par wirelessp2p.visualizer.linkBreakVisualizer icon "\"status/stop\""
par wirelessp2p.visualizer.linkBreakVisualizer iconTintAmount 0
par wirelessp2p.visualizer.linkBreakVisualizer iconTintColor "\"\""
par wirelessp2p.visualizer.linkBreakVisualizer fadeOutMode "\"realTime\""
attr enum realTime,animationTime,simulationTime
par wirelessp2p.visualizer.linkBreakVisualizer fadeOutTime 1s
attr unit s
par wirelessp2p.visualizer.linkBreakVisualizer fadeOutAnimationSpeed 0
par wirelessp2p.visualizer.linkBreakVisualizer zIndex 2
par wirelessp2p.visualizer.ieee80211Visualizer typename "\"inet.visualizer.canvas.linklayer.Ieee80211CanvasVisualizer\""
par wirelessp2p.visualizer.ieee80211Visualizer visualizationTargetModule "\"^.^\""
par wirelessp2p.visualizer.ieee80211Visualizer visualizationSubjectModule "\"^.^\""
par wirelessp2p.visualizer.ieee80211Visualizer tags "\"\""
par wirelessp2p.visualizer.ieee80211Visualizer networkNodeVisualizerModule "\"^.networkNodeVisualizer\""
par wirelessp2p.visualizer.ieee80211Visualizer displayAssociations false
par wirelessp2p.visualizer.ieee80211Visualizer nodeFilter "\"*\""
attr mutable ""
par wirelessp2p.visualizer.ieee80211Visualizer interfaceFilter "\"*\""
attr mutable ""
par wirelessp2p.visualizer.ieee80211Visualizer minPower -85dBm
attr unit dBm
par wirelessp2p.visualizer.ieee80211Visualizer maxPower -50dBm
attr unit dBm
par wirelessp2p.visualizer.ieee80211Visualizer icons "\"misc/signal_power_0 misc/signal_power_1 misc/signal_power_2 misc/signal_power_3\""
par wirelessp2p.visualizer.ieee80211Visualizer iconColor "\"dark\""
attr enum light,dark
par wirelessp2p.visualizer.ieee80211Visualizer labelFont "\"<default>\""
par wirelessp2p.visualizer.ieee80211Visualizer labelColor "\"black\""
par wirelessp2p.visualizer.ieee80211Visualizer placementHint "\"top\""
par wirelessp2p.visualizer.ieee80211Visualizer placementPriority 0
par wirelessp2p.visualizer.ieee80211Visualizer zIndex 2
par wirelessp2p.visualizer.networkRouteVisualizer typename "\"inet.visualizer.canvas.networklayer.NetworkRouteCanvasVisualizer\""
par wirelessp2p.visualizer.networkRouteVisualizer visualizationTargetModule "\"^.^\""
par wirelessp2p.visualizer.networkRouteVisualizer visualizationSubjectModule "\"^.^\""
par wirelessp2p.visualizer.networkRouteVisualizer tags "\"\""
par wirelessp2p.visualizer.networkRouteVisualizer displayRoutes false
par wirelessp2p.visualizer.networkRouteVisualizer startPathSignal "\"packetReceivedFromUpper\""
par wirelessp2p.visualizer.networkRouteVisualizer extendPathSignal "\"packetReceivedFromLower\""
par wirelessp2p.visualizer.networkRouteVisualizer endPathSignal "\"packetSentToUpper\""
par wirelessp2p.visualizer.networkRouteVisualizer nodeFilter "\"*\""
attr mutable ""
par wirelessp2p.visualizer.networkRouteVisualizer packetFilter "(omnetpp::cValueHolder)holder: \"*\""
attr mutable ""
par wirelessp2p.visualizer.networkRouteVisualizer lineColor "\"dark\""
attr enum light,dark
par wirelessp2p.visualizer.networkRouteVisualizer lineStyle "\"solid\""
par wirelessp2p.visualizer.networkRouteVisualizer lineWidth 3
par wirelessp2p.visualizer.networkRouteVisualizer lineSmooth false
par wirelessp2p.visualizer.networkRouteVisualizer lineShift 16
par wirelessp2p.visualizer.networkRouteVisualizer lineShiftMode "\"normal\""
par wirelessp2p.visualizer.networkRouteVisualizer lineContactSpacing 3
par wirelessp2p.visualizer.networkRouteVisualizer lineContactMode "\"rectangular\""
attr enum circular,rectangular
par wirelessp2p.visualizer.networkRouteVisualizer labelFormat "\"%n\""
par wirelessp2p.visualizer.networkRouteVisualizer labelFont "\"<default>, 8px\""
par wirelessp2p.visualizer.networkRouteVisualizer labelColor "\"\""
par wirelessp2p.visualizer.networkRouteVisualizer fadeOutMode "\"realTime\""
attr enum realTime,animationTime,simulationTime
par wirelessp2p.visualizer.networkRouteVisualizer fadeOutTime 1s
attr unit s
par wirelessp2p.visualizer.networkRouteVisualizer fadeOutAnimationSpeed 0
par wirelessp2p.visualizer.networkRouteVisualizer zIndex 3
par wirelessp2p.visualizer.routingTableVisualizer typename "\"inet.visualizer.canvas.networklayer.RoutingTableCanvasVisualizer\""
par wirelessp2p.visualizer.routingTableVisualizer visualizationTargetModule "\"^.^\""
par wirelessp2p.visualizer.routingTableVisualizer visualizationSubjectModule "\"^.^\""
par wirelessp2p.visualizer.routingTableVisualizer tags "\"\""
par wirelessp2p.visualizer.routingTableVisualizer displayRoutingTables false
par wirelessp2p.visualizer.routingTableVisualizer displayRoutesIndividually true
par wirelessp2p.visualizer.routingTableVisualizer displayLabels true
par wirelessp2p.visualizer.routingTableVisualizer destinationFilter "\"*\""
attr mutable ""
par wirelessp2p.visualizer.routingTableVisualizer nodeFilter "\"*\""
attr mutable ""
par wirelessp2p.visualizer.routingTableVisualizer lineColor "\"black\""
par wirelessp2p.visualizer.routingTableVisualizer lineStyle "\"solid\""
par wirelessp2p.visualizer.routingTableVisualizer lineWidth 2
par wirelessp2p.visualizer.routingTableVisualizer lineShift 16
par wirelessp2p.visualizer.routingTableVisualizer lineShiftMode "\"normal\""
par wirelessp2p.visualizer.routingTableVisualizer lineContactSpacing 3
par wirelessp2p.visualizer.routingTableVisualizer lineContactMode "\"rectangular\""
attr enum circular,rectangular
par wirelessp2p.visualizer.routingTableVisualizer labelFormat "\"%d/%m -> %g (%n)\""
attr mutable ""
par wirelessp2p.visualizer.routingTableVisualizer labelFont "\"<default>, 8px\""
par wirelessp2p.visualizer.routingTableVisualizer labelColor "\"black\""
par wirelessp2p.visualizer.routingTableVisualizer zIndex 0
par wirelessp2p.visualizer.transportRouteVisualizer typename "\"inet.visualizer.canvas.transportlayer.TransportRouteCanvasVisualizer\""
par wirelessp2p.visualizer.transportRouteVisualizer visualizationTargetModule "\"^.^\""
par wirelessp2p.visualizer.transportRouteVisualizer visualizationSubjectModule "\"^.^\""
par wirelessp2p.visualizer.transportRouteVisualizer tags "\"\""
par wirelessp2p.visualizer.transportRouteVisualizer displayRoutes false
par wirelessp2p.visualizer.transportRouteVisualizer startPathSignal "\"packetReceivedFromUpper\""
par wirelessp2p.visualizer.transportRouteVisualizer extendPathSignal "\"packetReceivedFromLower\""
par wirelessp2p.visualizer.transportRouteVisualizer endPathSignal "\"packetSentToUpper\""
par wirelessp2p.visualizer.transportRouteVisualizer nodeFilter "\"*\""
attr mutable ""
par wirelessp2p.visualizer.transportRouteVisualizer packetFilter "(omnetpp::cValueHolder)holder: \"*\""
attr mutable ""
par wirelessp2p.visualizer.transportRouteVisualizer lineColor "\"dark\""
attr enum light,dark
par wirelessp2p.visualizer.transportRouteVisualizer lineStyle "\"solid\""
par wirelessp2p.visualizer.transportRouteVisualizer lineWidth 3
par wirelessp2p.visualizer.transportRouteVisualizer lineSmooth false
par wirelessp2p.visualizer.transportRouteVisualizer lineShift 16
par wirelessp2p.visualizer.transportRouteVisualizer lineShiftMode "\"normal\""
par wirelessp2p.visualizer.transportRouteVisualizer lineContactSpacing 3
par wirelessp2p.visualizer.transportRouteVisualizer lineContactMode "\"rectangular\""
attr enum circular,rectangular
par wirelessp2p.visualizer.transportRouteVisualizer labelFormat "\"%n\""
par wirelessp2p.visualizer.transportRouteVisualizer labelFont "\"<default>, 8px\""
par wirelessp2p.visualizer.transportRouteVisualizer labelColor "\"\""
par wirelessp2p.visualizer.transportRouteVisualizer fadeOutMode "\"realTime\""
attr enum realTime,animationTime,simulationTime
par wirelessp2p.visualizer.transportRouteVisualizer fadeOutTime 1s
attr unit s
par wirelessp2p.visualizer.transportRouteVisualizer fadeOutAnimationSpeed 0
par wirelessp2p.visualizer.transportRouteVisualizer zIndex 4
par wirelessp2p.visualizer.transportConnectionVisualizer typename "\"inet.visualizer.canvas.transportlayer.TransportConnectionCanvasVisualizer\""
par wirelessp2p.visualizer.transportConnectionVisualizer visualizationTargetModule "\"^.^\""
par wirelessp2p.visualizer.transportConnectionVisualizer visualizationSubjectModule "\"^.^\""
par wirelessp2p.visualizer.transportConnectionVisualizer tags "\"\""
par wirelessp2p.visualizer.transportConnectionVisualizer networkNodeVisualizerModule "\"^.networkNodeVisualizer\""
par wirelessp2p.visualizer.transportConnectionVisualizer displayTransportConnections false
par wirelessp2p.visualizer.transportConnectionVisualizer sourceNodeFilter "\"*\""
attr mutable ""
par wirelessp2p.visualizer.transportConnectionVisualizer sourcePortFilter "\"*\""
attr mutable ""
par wirelessp2p.visualizer.transportConnectionVisualizer destinationNodeFilter "\"*\""
attr mutable ""
par wirelessp2p.visualizer.transportConnectionVisualizer destinationPortFilter "\"*\""
attr mutable ""
par wirelessp2p.visualizer.transportConnectionVisualizer icon "\"misc/marker_s\""
par wirelessp2p.visualizer.transportConnectionVisualizer iconColor "\"dark\""
attr enum light,dark
par wirelessp2p.visualizer.transportConnectionVisualizer labelFont "\"<default>\""
par wirelessp2p.visualizer.transportConnectionVisualizer labelColor "\"black\""
par wirelessp2p.visualizer.transportConnectionVisualizer placementHint "\"top\""
par wirelessp2p.visualizer.transportConnectionVisualizer placementPriority 0
par wirelessp2p.visualizer.transportConnectionVisualizer zIndex 4
par wirelessp2p.visualizer.failureProtectionConfigurationVisualizer typename "\"inet.visualizer.canvas.configurator.FailureProtectionConfigurationCanvasVisualizer\""
par wirelessp2p.visualizer.failureProtectionConfigurationVisualizer visualizationTargetModule "\"^.^\""
par wirelessp2p.visualizer.failureProtectionConfigurationVisualizer visualizationSubjectModule "\"^.^\""
par wirelessp2p.visualizer.failureProtectionConfigurationVisualizer tags "\"\""
par wirelessp2p.visualizer.failureProtectionConfigurationVisualizer displayTrees false
par wirelessp2p.visualizer.failureProtectionConfigurationVisualizer lineColor "\"dark\""
attr enum light,dark
par wirelessp2p.visualizer.failureProtectionConfigurationVisualizer lineStyle "\"solid\""
par wirelessp2p.visualizer.failureProtectionConfigurationVisualizer lineWidth 3
par wirelessp2p.visualizer.failureProtectionConfigurationVisualizer lineSmooth false
par wirelessp2p.visualizer.failureProtectionConfigurationVisualizer lineShift 16
par wirelessp2p.visualizer.failureProtectionConfigurationVisualizer lineShiftMode "\"normal\""
par wirelessp2p.visualizer.failureProtectionConfigurationVisualizer lineContactSpacing 3
par wirelessp2p.visualizer.failureProtectionConfigurationVisualizer lineContactMode "\"rectangular\""
attr enum circular,rectangular
par wirelessp2p.visualizer.failureProtectionConfigurationVisualizer failureProtectionConfiguratorModule "\"failureProtectionConfigurator\""
par wirelessp2p.visualizer.failureProtectionConfigurationVisualizer streamFilter "\"*\""
par wirelessp2p.visualizer.failureProtectionConfigurationVisualizer zIndex 3
par wirelessp2p.visualizer.streamRedundancyConfigurationVisualizer typename "\"inet.visualizer.canvas.configurator.StreamRedundancyConfigurationCanvasVisualizer\""
par wirelessp2p.visualizer.streamRedundancyConfigurationVisualizer visualizationTargetModule "\"^.^\""
par wirelessp2p.visualizer.streamRedundancyConfigurationVisualizer visualizationSubjectModule "\"^.^\""
par wirelessp2p.visualizer.streamRedundancyConfigurationVisualizer tags "\"\""
par wirelessp2p.visualizer.streamRedundancyConfigurationVisualizer displayTrees false
par wirelessp2p.visualizer.streamRedundancyConfigurationVisualizer lineColor "\"dark\""
attr enum light,dark
par wirelessp2p.visualizer.streamRedundancyConfigurationVisualizer lineStyle "\"solid\""
par wirelessp2p.visualizer.streamRedundancyConfigurationVisualizer lineWidth 3
par wirelessp2p.visualizer.streamRedundancyConfigurationVisualizer lineSmooth false
par wirelessp2p.visualizer.streamRedundancyConfigurationVisualizer lineShift 16
par wirelessp2p.visualizer.streamRedundancyConfigurationVisualizer lineShiftMode "\"normal\""
par wirelessp2p.visualizer.streamRedundancyConfigurationVisualizer lineContactSpacing 3
par wirelessp2p.visualizer.streamRedundancyConfigurationVisualizer lineContactMode "\"rectangular\""
attr enum circular,rectangular
par wirelessp2p.visualizer.streamRedundancyConfigurationVisualizer streamRedundancyConfiguratorModule "\"streamRedundancyConfigurator\""
par wirelessp2p.visualizer.streamRedundancyConfigurationVisualizer streamFilter "\"*\""
par wirelessp2p.visualizer.streamRedundancyConfigurationVisualizer zIndex 3
par wirelessp2p.visualizer typename "\"inet.visualizer.canvas.integrated.IntegratedCanvasVisualizer\""
par wirelessp2p.configurator typename "\"inet.networklayer.configurator.ipv4.Ipv4NetworkConfigurator\""
par wirelessp2p.configurator minLinkWeight 0.001
par wirelessp2p.configurator configureIsolatedNetworksSeparatly false
par wirelessp2p.configurator config "<config>...</config> at content:1"
par wirelessp2p.configurator assignAddresses true
par wirelessp2p.configurator assignUniqueAddresses true
par wirelessp2p.configurator assignDisjunctSubnetAddresses true
par wirelessp2p.configurator addStaticRoutes true
par wirelessp2p.configurator addDefaultRoutes true
par wirelessp2p.configurator addSubnetRoutes true
par wirelessp2p.configurator addDirectRoutes true
par wirelessp2p.configurator optimizeRoutes true
par wirelessp2p.configurator dumpTopology false
par wirelessp2p.configurator dumpLinks false
par wirelessp2p.configurator dumpAddresses false
par wirelessp2p.configurator dumpRoutes false
par wirelessp2p.configurator dumpConfig "\"\""
par wirelessp2p.radioMedium.propagation typename "\"inet.physicallayer.wireless.common.propagation.ConstantSpeedPropagation\""
par wirelessp2p.radioMedium.propagation propagationSpeed 2.99792e+08mps
attr unit mps
par wirelessp2p.radioMedium.propagation ignoreMovementDuringTransmission true
par wirelessp2p.radioMedium.propagation ignoreMovementDuringPropagation true
par wirelessp2p.radioMedium.propagation ignoreMovementDuringReception true
scalar wirelessp2p.radioMedium.propagation "Arrival computation count" 1000
par wirelessp2p.radioMedium.analogModel typename "\"inet.physicallayer.wireless.common.analogmodel.packetlevel.ScalarAnalogModel\""
par wirelessp2p.radioMedium.analogModel ignorePartialInterference false
par wirelessp2p.radioMedium.backgroundNoise typename "\"inet.physicallayer.wireless.common.backgroundnoise.IsotropicScalarBackgroundNoise\""
par wirelessp2p.radioMedium.backgroundNoise power -100dBm
attr unit dBm
par wirelessp2p.radioMedium.backgroundNoise bandwidth "nan Hz"
attr unit Hz
par wirelessp2p.radioMedium.pathLoss typename "\"inet.physicallayer.wireless.common.pathloss.FreeSpacePathLoss\""
par wirelessp2p.radioMedium.pathLoss alpha 2
par wirelessp2p.radioMedium.pathLoss systemLoss 0dB
attr unit dB
par wirelessp2p.radioMedium.mediumLimitCache typename "\"inet.physicallayer.wireless.common.medium.MediumLimitCache\""
par wirelessp2p.radioMedium.mediumLimitCache centerFrequency "nan Hz"
attr unit Hz
par wirelessp2p.radioMedium.mediumLimitCache maxSpeed "nan mps"
attr unit mps
par wirelessp2p.radioMedium.mediumLimitCache maxTransmissionPower "nan W"
attr unit W
par wirelessp2p.radioMedium.mediumLimitCache minInterferencePower "nan dBm"
attr unit dBm
par wirelessp2p.radioMedium.mediumLimitCache minReceptionPower "nan dBm"
attr unit dBm
par wirelessp2p.radioMedium.mediumLimitCache maxAntennaGain 0dB
attr unit dB
par wirelessp2p.radioMedium.mediumLimitCache minInterferenceTime 1e-12s
attr unit s
par wirelessp2p.radioMedium.mediumLimitCache maxTransmissionDuration 0.01s
attr unit s
par wirelessp2p.radioMedium.mediumLimitCache maxCommunicationRange "nan m"
attr unit m
par wirelessp2p.radioMedium.mediumLimitCache maxInterferenceRange "nan m"
attr unit m
par wirelessp2p.radioMedium.communicationCache typename "\"inet.physicallayer.wireless.common.communicationcache.VectorCommunicationCache\""
par wirelessp2p.radioMedium typename "\"inet.physicallayer.wireless.common.medium.RadioMedium\""
par wirelessp2p.radioMedium physicalEnvironmentModule "\"physicalEnvironment\""
par wirelessp2p.radioMedium signalAnalogRepresentation "\"scalar\""
attr enum unitDisk,scalar,dimensional
par wirelessp2p.radioMedium rangeFilter "\"\""
par wirelessp2p.radioMedium radioModeFilter false
par wirelessp2p.radioMedium listeningFilter false
par wirelessp2p.radioMedium macAddressFilter false
par wirelessp2p.radioMedium recordTransmissionLog false
par wirelessp2p.radioMedium recordReceptionLog false
scalar wirelessp2p.radioMedium "transmission count" 250
scalar wirelessp2p.radioMedium "signal send count" 1000
scalar wirelessp2p.radioMedium "reception computation count" 1000
scalar wirelessp2p.radioMedium "interference computation count" 3260
scalar wirelessp2p.radioMedium "reception decision computation count" 1000
scalar wirelessp2p.radioMedium "listening decision computation count" 1260
scalar wirelessp2p.radioMedium "reception cache hit" 85.714285714286
attr unit %
scalar wirelessp2p.radioMedium "interference cache hit" 66.666666666667
attr unit %
scalar wirelessp2p.radioMedium "noise cache hit" 0
attr unit %
scalar wirelessp2p.radioMedium "snir cache hit" 50
attr unit %
scalar wirelessp2p.radioMedium "reception decision cache hit" 50
attr unit %
scalar wirelessp2p.radioMedium "reception result cache hit" 0
attr unit %
par wirelessp2p.host1.radioIn[0].channel typename "\"ned.IdealChannel\""
par wirelessp2p.host1.mobility typename "\"inet.mobility.static.StationaryMobility\""
par wirelessp2p.host1.mobility subjectModule "\"^\""
par wirelessp2p.host1.mobility coordinateSystemModule "\"\""
par wirelessp2p.host1.mobility displayStringTextFormat "\"p: %p\\nv: %v\""
attr mutable ""
par wirelessp2p.host1.mobility updateDisplayString true
par wirelessp2p.host1.mobility constraintAreaMinX "-inf m"
attr unit m
par wirelessp2p.host1.mobility constraintAreaMinY "-inf m"
attr unit m
par wirelessp2p.host1.mobility constraintAreaMinZ "-inf m"
attr unit m
par wirelessp2p.host1.mobility constraintAreaMaxX "inf m"
attr unit m
par wirelessp2p.host1.mobility constraintAreaMaxY "inf m"
attr unit m
par wirelessp2p.host1.mobility constraintAreaMaxZ "inf m"
attr unit m
par wirelessp2p.host1.mobility initialX "nan m"
attr unit m
par wirelessp2p.host1.mobility initialY "nan m"
attr unit m
par wirelessp2p.host1.mobility initialZ 0m
attr unit m
par wirelessp2p.host1.mobility initialLatitude "nan deg"
attr unit deg
par wirelessp2p.host1.mobility initialLongitude "nan deg"
attr unit deg
par wirelessp2p.host1.mobility initialAltitude 0m
attr unit m
par wirelessp2p.host1.mobility initialHeading 0deg
attr unit deg
par wirelessp2p.host1.mobility initialElevation 0deg
attr unit deg
par wirelessp2p.host1.mobility initialBank 0deg
attr unit deg
par wirelessp2p.host1.mobility initFromDisplayString true
par wirelessp2p.host1.mobility updateFromDisplayString true
par wirelessp2p.host1.interfaceTable typename "\"inet.networklayer.common.InterfaceTable\""
par wirelessp2p.host1.interfaceTable displayAddresses false
par wirelessp2p.host1.cb typename "\"inet.common.MessageDispatcher\""
par wirelessp2p.host1.cb displayStringTextFormat "\"processed %p pk (%l)\""
par wirelessp2p.host1.cb forwardServiceRegistration true
par wirelessp2p.host1.cb forwardProtocolRegistration true
par wirelessp2p.host1.bl typename "\"inet.common.MessageDispatcher\""
par wirelessp2p.host1.bl displayStringTextFormat "\"processed %p pk (%l)\""
par wirelessp2p.host1.bl forwardServiceRegistration true
par wirelessp2p.host1.bl forwardProtocolRegistration true
par wirelessp2p.host1.li typename "\"inet.common.MessageDispatcher\""
par wirelessp2p.host1.li displayStringTextFormat "\"processed %p pk (%l)\""
par wirelessp2p.host1.li forwardServiceRegistration true
par wirelessp2p.host1.li forwardProtocolRegistration true
par wirelessp2p.host1.lo[0].upperLayerIn.channel typename "\"ned.IdealChannel\""
par wirelessp2p.host1.lo[0].lo.upperLayerOut.channel typename "\"ned.IdealChannel\""
par wirelessp2p.host1.lo[0].lo typename "\"inet.linklayer.loopback.Loopback\""
par wirelessp2p.host1.lo[0].lo interfaceTableModule "\"wirelessp2p.host1.interfaceTable\""
par wirelessp2p.host1.lo[0].lo mtu 4470B
attr unit B
scalar wirelessp2p.host1.lo[0].lo rcvdPkFromHl:count 335
attr interpolationmode none
attr recordingmode count
attr source packetReceivedFromUpper
attr title "packets received from higher layer, count"
scalar wirelessp2p.host1.lo[0].lo rcvdPkFromHl:sum(packetBytes) 344380
attr interpolationmode none
attr recordingmode sum(packetBytes)
attr source packetReceivedFromUpper
attr title "packets received from higher layer, sum(packetBytes)"
scalar wirelessp2p.host1.lo[0].lo passedUpPk:count 335
attr interpolationmode none
attr recordingmode count
attr source packetSentToUpper
attr title "packets passed to higher layer, count"
scalar wirelessp2p.host1.lo[0].lo passedUpPk:sum(packetBytes) 344380
attr interpolationmode none
attr recordingmode sum(packetBytes)
attr source packetSentToUpper
attr title "packets passed to higher layer, sum(packetBytes)"
par wirelessp2p.host1.lo[0] typename "\"inet.linklayer.loopback.LoopbackInterface\""
par wirelessp2p.host1.lo[0] displayStringTextFormat "\"%a (%i)\\n%m\""
par wirelessp2p.host1.lo[0] recordPcap false
par wirelessp2p.host1.lo[0] numPcapRecorders 0
par wirelessp2p.host1.lo[0] interfaceTableModule "\"wirelessp2p.host1.interfaceTable\""
scalar wirelessp2p.host1.lo[0] packetDropInterfaceDown:count 0
attr interpolationmode none
attr recordingmode count
attr source packetDropReasonIsInterfaceDown(packetDropped)
attr title "packet drops: interface down, count"
scalar wirelessp2p.host1.lo[0] packetDropInterfaceDown:sum(packetBytes) 0
attr interpolationmode none
attr recordingmode sum(packetBytes)
attr source packetDropReasonIsInterfaceDown(packetDropped)
attr title "packet drops: interface down, sum(packetBytes)"
scalar wirelessp2p.host1.lo[0] packetDropNoCarrier:count 0
attr interpolationmode none
attr recordingmode count
attr source packetDropReasonIsNoCarrier(packetDropped)
attr title "packet drops: no carrier, count"
scalar wirelessp2p.host1.lo[0] packetDropNoCarrier:sum(packetBytes) 0
attr interpolationmode none
attr recordingmode sum(packetBytes)
attr source packetDropReasonIsNoCarrier(packetDropped)
attr title "packet drops: no carrier, sum(packetBytes)"
par wirelessp2p.host1.wlan[0].radioIn.channel typename "\"ned.IdealChannel\""
par wirelessp2p.host1.wlan[0].llc.upperLayerOut.channel typename "\"ned.IdealChannel\""
par wirelessp2p.host1.wlan[0].upperLayerIn.channel typename "\"ned.IdealChannel\""
par wirelessp2p.host1.wlan[0].mib typename "\"inet.linklayer.ieee80211.mib.Ieee80211Mib\""
par wirelessp2p.host1.wlan[0].llc typename "\"inet.linklayer.ieee80211.llc.Ieee80211LlcLpd\""
par wirelessp2p.host1.wlan[0].llc registerProtocol false
par wirelessp2p.host1.wlan[0].agent typename "\"inet.linklayer.ieee80211.mgmt.Ieee80211AgentSta\""
par wirelessp2p.host1.wlan[0].agent interfaceTableModule "\"wirelessp2p.host1.interfaceTable\""
par wirelessp2p.host1.wlan[0].agent mibModule "\"wirelessp2p.host1.wlan[0].mib\""
par wirelessp2p.host1.wlan[0].agent activeScan true
par wirelessp2p.host1.wlan[0].agent channelsToScan "\"\""
par wirelessp2p.host1.wlan[0].agent probeDelay 0.1s
attr unit s
par wirelessp2p.host1.wlan[0].agent minChannelTime 0.15s
attr unit s
par wirelessp2p.host1.wlan[0].agent maxChannelTime 0.3s
attr unit s
par wirelessp2p.host1.wlan[0].agent authenticationTimeout 5s
attr unit s
par wirelessp2p.host1.wlan[0].agent associationTimeout 5s
attr unit s
par wirelessp2p.host1.wlan[0].agent startingTime -1s
attr unit s
par wirelessp2p.host1.wlan[0].agent defaultSsid "\"SSID\""
scalar wirelessp2p.host1.wlan[0].agent dropConfirm:count 49
attr recordingmode count
attr title "dropped confirms, count"
scalar wirelessp2p.host1.wlan[0].agent acceptConfirm:count 0
attr recordingmode count
attr title "accepted confirms, count"
scalar wirelessp2p.host1.wlan[0].agent sentRequest:count 50
attr recordingmode count
attr title "sent requests, count"
par wirelessp2p.host1.wlan[0].mgmt typename "\"inet.linklayer.ieee80211.mgmt.Ieee80211MgmtSta\""
par wirelessp2p.host1.wlan[0].mgmt interfaceTableModule "\"wirelessp2p.host1.interfaceTable\""
par wirelessp2p.host1.wlan[0].mgmt numChannels 1
par wirelessp2p.host1.wlan[0].mgmt mibModule "\"wirelessp2p.host1.wlan[0].mib\""
par wirelessp2p.host1.wlan[0].mgmt macModule "\"wirelessp2p.host1.wlan[0].mac\""
par wirelessp2p.host1.wlan[0].mac.dcf.channelAccess.pendingQueue typename "\"inet.linklayer.ieee80211.mac.queue.PendingQueue\""
par wirelessp2p.host1.wlan[0].mac.dcf.channelAccess.pendingQueue displayStringTextFormat "\"contains %p pk (%l) pushed %u\\npulled %o removed %r dropped %d\""
par wirelessp2p.host1.wlan[0].mac.dcf.channelAccess.pendingQueue packetCapacity 100
par wirelessp2p.host1.wlan[0].mac.dcf.channelAccess.pendingQueue dataCapacity -1b
attr unit b
par wirelessp2p.host1.wlan[0].mac.dcf.channelAccess.pendingQueue dropperClass "\"inet::queueing::PacketAtCollectionEndDropper\""
par wirelessp2p.host1.wlan[0].mac.dcf.channelAccess.pendingQueue comparatorClass "\"inet::ieee80211::MgmtOverDataComparator\""
par wirelessp2p.host1.wlan[0].mac.dcf.channelAccess.pendingQueue bufferModule "\"\""
scalar wirelessp2p.host1.wlan[0].mac.dcf.channelAccess.pendingQueue queueLength:last 0
attr autoWarmupFilter false
attr interpolationmode sample-hold
attr recordingmode last
attr source "warmup(atomic(constant0(packetPushEnded) + count(packetPushStarted) - count(packetPulled) - count(packetRemoved) - count(packetDropped)))"
attr title "queue length, last"
attr unit pk
scalar wirelessp2p.host1.wlan[0].mac.dcf.channelAccess.pendingQueue queueLength:max 1
attr autoWarmupFilter false
attr interpolationmode sample-hold
attr recordingmode max
attr source "warmup(atomic(constant0(packetPushEnded) + count(packetPushStarted) - count(packetPulled) - count(packetRemoved) - count(packetDropped)))"
attr title "queue length, max"
attr unit pk
scalar wirelessp2p.host1.wlan[0].mac.dcf.channelAccess.pendingQueue queueLength:timeavg 0
attr autoWarmupFilter false
attr interpolationmode sample-hold
attr recordingmode timeavg
attr source "warmup(atomic(constant0(packetPushEnded) + count(packetPushStarted) - count(packetPulled) - count(packetRemoved) - count(packetDropped)))"
attr title "queue length, timeavg"
attr unit pk
scalar wirelessp2p.host1.wlan[0].mac.dcf.channelAccess.pendingQueue queueBitLength:last 0
attr autoWarmupFilter false
attr interpolationmode sample-hold
attr recordingmode last
attr source "warmup(atomic(constant0(packetPushEnded) + sum(packetLength(packetPushStarted)) - sum(packetLength(packetPulled)) - sum(packetLength(packetRemoved)) - sum(packetLength(packetDropped))))"
attr title "queue bit length, last"
attr unit b
scalar wirelessp2p.host1.wlan[0].mac.dcf.channelAccess.pendingQueue queueBitLength:max 256
attr autoWarmupFilter false
attr interpolationmode sample-hold
attr recordingmode max
attr source "warmup(atomic(constant0(packetPushEnded) + sum(packetLength(packetPushStarted)) - sum(packetLength(packetPulled)) - sum(packetLength(packetRemoved)) - sum(packetLength(packetDropped))))"
attr title "queue bit length, max"
attr unit b
scalar wirelessp2p.host1.wlan[0].mac.dcf.channelAccess.pendingQueue queueBitLength:timeavg 0
attr autoWarmupFilter false
attr interpolationmode sample-hold
attr recordingmode timeavg
attr source "warmup(atomic(constant0(packetPushEnded) + sum(packetLength(packetPushStarted)) - sum(packetLength(packetPulled)) - sum(packetLength(packetRemoved)) - sum(packetLength(packetDropped))))"
attr title "queue bit length, timeavg"
attr unit b
statistic wirelessp2p.host1.wlan[0].mac.dcf.channelAccess.pendingQueue queueingTime:histogram
field count 50
field mean 0
field stddev 0
field min 0
field max 0
field sum 0
field sqrsum 0
attr interpolationmode none
attr recordingmode histogram
attr source queueingTime(packetPulled)
attr title "queueing times"
attr unit s
bin	-inf	0
bin	-0.5	0
bin	-0.48	0
bin	-0.46	0
bin	-0.44	0
bin	-0.42	0
bin	-0.4	0
bin	-0.38	0
bin	-0.36	0
bin	-0.34	0
bin	-0.32	0
bin	-0.3	0
bin	-0.28	0
bin	-0.26	0
bin	-0.24	0
bin	-0.22	0
bin	-0.2	0
bin	-0.18	0
bin	-0.16	0
bin	-0.14	0
bin	-0.12	0
bin	-0.1	0
bin	-0.08	0
bin	-0.06	0
bin	-0.04	0
bin	-0.02	0
bin	0	50
bin	0.02	0
bin	0.04	0
bin	0.06	0
bin	0.08	0
bin	0.1	0
bin	0.12	0
bin	0.14	0
bin	0.16	0
bin	0.18	0
bin	0.2	0
bin	0.22	0
bin	0.24	0
bin	0.26	0
bin	0.28	0
bin	0.3	0
bin	0.32	0
bin	0.34	0
bin	0.36	0
bin	0.38	0
bin	0.4	0
bin	0.42	0
bin	0.44	0
bin	0.46	0
bin	0.48	0
bin	0.5	0
scalar wirelessp2p.host1.wlan[0].mac.dcf.channelAccess.pendingQueue outgoingPackets:count 50
attr recordingmode count
attr source packetPulled
attr title "outgoing packets, count"
attr unit pk
scalar wirelessp2p.host1.wlan[0].mac.dcf.channelAccess.pendingQueue outgoingPacketLengths:sum 12800
attr interpolationmode none
attr recordingmode sum
attr source packetLength(packetPulled)
attr title "outgoing packet lengths, sum"
attr unit b
statistic wirelessp2p.host1.wlan[0].mac.dcf.channelAccess.pendingQueue outgoingPacketLengths:histogram
field count 50
field mean 256
field stddev 0
field min 256
field max 256
field sum 12800
field sqrsum 3276800
attr interpolationmode none
attr recordingmode histogram
attr source packetLength(packetPulled)
attr title "outgoing packet lengths"
attr unit b
bin	-inf	0
bin	255	0
bin	256	50
bin	257	0
statistic wirelessp2p.host1.wlan[0].mac.dcf.channelAccess.pendingQueue flowQueueingTime:histogram
field count 0
field mean nan
field stddev nan
field min nan
field max nan
field sum 0
field sqrsum 0
attr interpolationmode none
attr recordingmode histogram
attr source queueingTime(demuxFlow(packetPulled))
attr title "flow queueing times"
attr unit s
bin	-inf	0
bin	0	0
bin	1	0
scalar wirelessp2p.host1.wlan[0].mac.dcf.channelAccess.pendingQueue incomingPackets:count 50
attr recordingmode count
attr source packetPushStarted
attr title "incoming packets, count"
attr unit pk
scalar wirelessp2p.host1.wlan[0].mac.dcf.channelAccess.pendingQueue incomingPacketLengths:sum 12800
attr interpolationmode none
attr recordingmode sum
attr source packetLength(packetPushStarted)
attr title "incoming packet lengths, sum"
attr unit b
statistic wirelessp2p.host1.wlan[0].mac.dcf.channelAccess.pendingQueue incomingPacketLengths:histogram
field count 50
field mean 256
field stddev 0
field min 256
field max 256
field sum 12800
field sqrsum 3276800
attr interpolationmode none
attr recordingmode histogram
attr source packetLength(packetPushStarted)
attr title "incoming packet lengths"
attr unit b
bin	-inf	0
bin	255	0
bin	256	50
bin	257	0
scalar wirelessp2p.host1.wlan[0].mac.dcf.channelAccess.pendingQueue droppedPacketsQueueOverflow:count 0
attr interpolationmode none
attr recordingmode count
attr source packetDropReasonIsQueueOverflow(packetDropped)
attr title "dropped packets: queue overflow, count"
attr unit pk
scalar wirelessp2p.host1.wlan[0].mac.dcf.channelAccess.pendingQueue droppedPacketLengthsQueueOverflow:sum 0
attr interpolationmode none
attr recordingmode sum
attr source packetLength(packetDropReasonIsQueueOverflow(packetDropped))
attr title "dropped packet lengths: queue overflow, sum"
attr unit b
par wirelessp2p.host1.wlan[0].mac.dcf.channelAccess.inProgressFrames typename "\"inet.linklayer.ieee80211.mac.queue.InProgressFrames\""
par wirelessp2p.host1.wlan[0].mac.dcf.channelAccess.inProgressFrames pendingQueueModule "\"^.pendingQueue\""
par wirelessp2p.host1.wlan[0].mac.dcf.channelAccess.inProgressFrames originatorMacDataServiceModule "\"^.^.originatorMacDataService\""
par wirelessp2p.host1.wlan[0].mac.dcf.channelAccess.inProgressFrames ackHandlerModule "\"^.^.ackHandler\""
statistic wirelessp2p.host1.wlan[0].mac.dcf.channelAccess.inProgressFrames queueingTime:histogram
field count 50
field mean 3.8e-05
field stddev 0
field min 3.8e-05
field max 3.8e-05
field sum 0.0019
field sqrsum 7.22e-08
attr interpolationmode none
attr recordingmode histogram
attr source queueingTime(packetDequeued)
attr title "queueing times"
bin	-inf	0
bin	0	50
bin	0.01	0
bin	0.02	0
bin	0.03	0
bin	0.04	0
bin	0.05	0
bin	0.06	0
bin	0.07	0
bin	0.08	0
bin	0.09	0
bin	0.1	0
bin	0.11	0
bin	0.12	0
bin	0.13	0
bin	0.14	0
bin	0.15	0
bin	0.16	0
bin	0.17	0
bin	0.18	0
bin	0.19	0
bin	0.2	0
bin	0.21	0
bin	0.22	0
bin	0.23	0
bin	0.24	0
bin	0.25	0
bin	0.26	0
bin	0.27	0
bin	0.28	0
bin	0.29	0
bin	0.3	0
bin	0.31	0
bin	0.32	0
bin	0.33	0
bin	0.34	0
bin	0.35	0
bin	0.36	0
bin	0.37	0
bin	0.38	0
bin	0.39	0
bin	0.4	0
bin	0.41	0
bin	0.42	0
bin	0.43	0
bin	0.44	0
bin	0.45	0
bin	0.46	0
bin	0.47	0
bin	0.48	0
bin	0.49	0
bin	0.5	0
bin	0.51	0
scalar wirelessp2p.host1.wlan[0].mac.dcf.channelAccess.inProgressFrames queueLength:max 1
attr autoWarmupFilter false
attr interpolationmode sample-hold
attr recordingmode max
attr source "warmup(count(packetEnqueued) - count(packetDequeued))"
attr title "queue length, max"
scalar wirelessp2p.host1.wlan[0].mac.dcf.channelAccess.inProgressFrames queueLength:timeavg 9.5e-05
attr autoWarmupFilter false
attr interpolationmode sample-hold
attr recordingmode timeavg
attr source "warmup(count(packetEnqueued) - count(packetDequeued))"
attr title "queue length, timeavg"
par wirelessp2p.host1.wlan[0].mac.dcf.channelAccess.contention typename "\"inet.linklayer.ieee80211.mac.contention.Contention\""
par wirelessp2p.host1.wlan[0].mac.dcf.channelAccess.contention initialChannelBusy true
par wirelessp2p.host1.wlan[0].mac.dcf.channelAccess.contention backoffOptimization true
scalar wirelessp2p.host1.wlan[0].mac.dcf.channelAccess.contention stateChanged:count 1202
attr enum IDLE,DEFER,IFS_AND_BACKOFF
attr interpolationmode none
attr recordingmode count
attr title "contention state changed, count"
attr type enum
scalar wirelessp2p.host1.wlan[0].mac.dcf.channelAccess.contention channelAccessGranted:count 50
attr recordingmode count
attr title "channel access granted, count"
par wirelessp2p.host1.wlan[0].mac.dcf.channelAccess typename "\"inet.linklayer.ieee80211.mac.channelaccess.Dcaf\""
par wirelessp2p.host1.wlan[0].mac.dcf.channelAccess difsn -1
par wirelessp2p.host1.wlan[0].mac.dcf.channelAccess cwMin -1
par wirelessp2p.host1.wlan[0].mac.dcf.channelAccess cwMax -1
par wirelessp2p.host1.wlan[0].mac.dcf.channelAccess rxModule "\"^.^.rx\""
scalar wirelessp2p.host1.wlan[0].mac.dcf.channelAccess channelOwnershipChanged:count 100
attr interpolationmode sample-hold
attr recordingmode count
attr title "channel ownership, count"
par wirelessp2p.host1.wlan[0].mac.dcf.originatorMacDataService.fragmentationPolicy typename "\"inet.linklayer.ieee80211.mac.fragmentation.BasicFragmentationPolicy\""
par wirelessp2p.host1.wlan[0].mac.dcf.originatorMacDataService.fragmentationPolicy fragmentationThreshold 1500B
attr unit B
par wirelessp2p.host1.wlan[0].mac.dcf.originatorMacDataService typename "\"inet.linklayer.ieee80211.mac.originator.OriginatorMacDataService\""
scalar wirelessp2p.host1.wlan[0].mac.dcf.originatorMacDataService packetAggregated:count 0
attr recordingmode count
attr title "packets aggregated, count"
scalar wirelessp2p.host1.wlan[0].mac.dcf.originatorMacDataService packetFragmented:count 0
attr recordingmode count
attr title "packets fragmented, count"
par wirelessp2p.host1.wlan[0].mac.dcf.recipientMacDataService typename "\"inet.linklayer.ieee80211.mac.recipient.RecipientMacDataService\""
scalar wirelessp2p.host1.wlan[0].mac.dcf.recipientMacDataService packetDropDuplicateDetected:count 0
attr interpolationmode none
attr recordingmode count
attr source packetDropReasonIsDuplicateDetected(packetDropped)
attr title "packet drops: duplicate detected, count"
scalar wirelessp2p.host1.wlan[0].mac.dcf.recipientMacDataService packetDropDuplicateDetected:sum(packetBytes) 0
attr interpolationmode none
attr recordingmode sum(packetBytes)
attr source packetDropReasonIsDuplicateDetected(packetDropped)
attr title "packet drops: duplicate detected, sum(packetBytes)"
scalar wirelessp2p.host1.wlan[0].mac.dcf.recipientMacDataService packetDeaggregated:count 0
attr recordingmode count
attr title "packets deaggregated, count"
scalar wirelessp2p.host1.wlan[0].mac.dcf.recipientMacDataService packetDefragmented:count 200
attr recordingmode count
attr title "packets defragmented, count"
par wirelessp2p.host1.wlan[0].mac.dcf.rateSelection typename "\"inet.linklayer.ieee80211.mac.rateselection.RateSelection\""
par wirelessp2p.host1.wlan[0].mac.dcf.rateSelection rateControlModule "\"^.rateControl\""
par wirelessp2p.host1.wlan[0].mac.dcf.rateSelection multicastFrameBitrate -1bps
attr unit bps
par wirelessp2p.host1.wlan[0].mac.dcf.rateSelection responseAckFrameBitrate -1bps
attr unit bps
par wirelessp2p.host1.wlan[0].mac.dcf.rateSelection responseCtsFrameBitrate -1bps
attr unit bps
par wirelessp2p.host1.wlan[0].mac.dcf.rateSelection dataFrameBitrate 5.4e+07bps
attr unit bps
par wirelessp2p.host1.wlan[0].mac.dcf.rateSelection dataFrameBandwidth "nan Hz"
attr unit Hz
par wirelessp2p.host1.wlan[0].mac.dcf.rateSelection dataFrameNumSpatialStreams -1
par wirelessp2p.host1.wlan[0].mac.dcf.rateSelection mgmtFrameBitrate -1bps
attr unit bps
par wirelessp2p.host1.wlan[0].mac.dcf.rateSelection controlFrameBitrate -1bps
attr unit bps
par wirelessp2p.host1.wlan[0].mac.dcf.recoveryProcedure typename "\"inet.linklayer.ieee80211.mac.originator.NonQosRecoveryProcedure\""
par wirelessp2p.host1.wlan[0].mac.dcf.recoveryProcedure cwCalculatorModule "\"^.channelAccess\""
par wirelessp2p.host1.wlan[0].mac.dcf.recoveryProcedure rtsPolicyModule "\"^.rtsPolicy\""
par wirelessp2p.host1.wlan[0].mac.dcf.recoveryProcedure shortRetryLimit 7
par wirelessp2p.host1.wlan[0].mac.dcf.recoveryProcedure longRetryLimit 4
scalar wirelessp2p.host1.wlan[0].mac.dcf.recoveryProcedure retryLimitReached:count 0
attr recordingmode count
attr title "retry limit reached, count"
par wirelessp2p.host1.wlan[0].mac.dcf.originatorProtectionMechanism typename "\"inet.linklayer.ieee80211.mac.protectionmechanism.OriginatorProtectionMechanism\""
par wirelessp2p.host1.wlan[0].mac.dcf.originatorProtectionMechanism rateSelectionModule "\"^.rateSelection\""
par wirelessp2p.host1.wlan[0].mac.dcf.ackHandler typename "\"inet.linklayer.ieee80211.mac.originator.AckHandler\""
par wirelessp2p.host1.wlan[0].mac.dcf.originatorAckPolicy typename "\"inet.linklayer.ieee80211.mac.originator.OriginatorAckPolicy\""
par wirelessp2p.host1.wlan[0].mac.dcf.originatorAckPolicy rateSelectionModule "\"^.rateSelection\""
par wirelessp2p.host1.wlan[0].mac.dcf.originatorAckPolicy ackTimeout -1s
attr unit s
par wirelessp2p.host1.wlan[0].mac.dcf.recipientAckPolicy typename "\"inet.linklayer.ieee80211.mac.recipient.RecipientAckPolicy\""
par wirelessp2p.host1.wlan[0].mac.dcf.recipientAckPolicy rateSelectionModule "\"^.rateSelection\""
par wirelessp2p.host1.wlan[0].mac.dcf.rtsPolicy typename "\"inet.linklayer.ieee80211.mac.originator.RtsPolicy\""
par wirelessp2p.host1.wlan[0].mac.dcf.rtsPolicy rateSelectionModule "\"^.rateSelection\""
par wirelessp2p.host1.wlan[0].mac.dcf.rtsPolicy ctsTimeout -1s
attr unit s
par wirelessp2p.host1.wlan[0].mac.dcf.rtsPolicy rtsThreshold 2346B
attr unit B
par wirelessp2p.host1.wlan[0].mac.dcf.ctsPolicy typename "\"inet.linklayer.ieee80211.mac.recipient.CtsPolicy\""
par wirelessp2p.host1.wlan[0].mac.dcf.ctsPolicy rxModule "\"^.^.rx\""
par wirelessp2p.host1.wlan[0].mac.dcf.ctsPolicy rateSelectionModule "\"^.rateSelection\""
par wirelessp2p.host1.wlan[0].mac.dcf typename "\"inet.linklayer.ieee80211.mac.coordinationfunction.Dcf\""
par wirelessp2p.host1.wlan[0].mac.dcf rxModule "\"^.rx\""
par wirelessp2p.host1.wlan[0].mac.dcf txModule "\"^.tx\""
scalar wirelessp2p.host1.wlan[0].mac.dcf packetReceivedFromPeer:count 200
attr interpolationmode none
attr recordingmode count
attr title "packets received, count"
scalar wirelessp2p.host1.wlan[0].mac.dcf packetReceivedFromPeer:sum(packetBytes) 6400
attr interpolationmode none
attr recordingmode sum(packetBytes)
attr title "packets received, sum(packetBytes)"
scalar wirelessp2p.host1.wlan[0].mac.dcf packetReceivedFromPeerUnicast:count 0
attr interpolationmode none
attr recordingmode count
attr source ieee80211Unicast(packetReceivedFromPeer)
attr title "packets received: unicast, count"
scalar wirelessp2p.host1.wlan[0].mac.dcf packetReceivedFromPeerUnicast:sum(packetBytes) 0
attr interpolationmode none
attr recordingmode sum(packetBytes)
attr source ieee80211Unicast(packetReceivedFromPeer)
attr title "packets received: unicast, sum(packetBytes)"
scalar wirelessp2p.host1.wlan[0].mac.dcf packetReceivedFromPeerMulticast:count 200
attr interpolationmode none
attr recordingmode count
attr source ieee80211Multicast(packetReceivedFromPeer)
attr title "packets received: multicast, count"
scalar wirelessp2p.host1.wlan[0].mac.dcf packetReceivedFromPeerMulticast:sum(packetBytes) 6400
attr interpolationmode none
attr recordingmode sum(packetBytes)
attr source ieee80211Multicast(packetReceivedFromPeer)
attr title "packets received: multicast, sum(packetBytes)"
scalar wirelessp2p.host1.wlan[0].mac.dcf packetReceivedFromPeerBroadcast:count 200
attr interpolationmode none
attr recordingmode count
attr source ieee80211Broadcast(packetReceivedFromPeer)
attr title "packets received: broadcast, count"
scalar wirelessp2p.host1.wlan[0].mac.dcf packetReceivedFromPeerBroadcast:sum(packetBytes) 6400
attr interpolationmode none
attr recordingmode sum(packetBytes)
attr source ieee80211Broadcast(packetReceivedFromPeer)
attr title "packets received: broadcast, sum(packetBytes)"
scalar wirelessp2p.host1.wlan[0].mac.dcf packetReceivedFromPeerWithRetry:count 0
attr interpolationmode none
attr recordingmode count
attr source ieee80211Retry(packetReceivedFromPeer)
attr title "packets received: with retry, count"
scalar wirelessp2p.host1.wlan[0].mac.dcf packetReceivedFromPeerWithRetry:sum(packetBytes) 0
attr interpolationmode none
attr recordingmode sum(packetBytes)
attr source ieee80211Retry(packetReceivedFromPeer)
attr title "packets received: with retry, sum(packetBytes)"
scalar wirelessp2p.host1.wlan[0].mac.dcf packetReceivedFromPeerWithoutRetry:count 200
attr interpolationmode none
attr recordingmode count
attr source ieee80211NotRetry(packetReceivedFromPeer)
attr title "packets received: without retry, count"
[...]
par wirelessp2p.host5.wlan[0] protocol "\"\""
par wirelessp2p.host5.wlan[0] bitrate 5.4e+07bps
attr unit bps
scalar wirelessp2p.host5.wlan[0] packetDropInterfaceDown:count 0
attr interpolationmode none
attr recordingmode count
attr source packetDropReasonIsInterfaceDown(packetDropped)
attr title "packet drops: interface down, count"
scalar wirelessp2p.host5.wlan[0] packetDropInterfaceDown:sum(packetBytes) 0
attr interpolationmode none
attr recordingmode sum(packetBytes)
attr source packetDropReasonIsInterfaceDown(packetDropped)
attr title "packet drops: interface down, sum(packetBytes)"
scalar wirelessp2p.host5.wlan[0] packetDropNoCarrier:count 0
attr interpolationmode none
attr recordingmode count
attr source packetDropReasonIsNoCarrier(packetDropped)
attr title "packet drops: no carrier, count"
scalar wirelessp2p.host5.wlan[0] packetDropNoCarrier:sum(packetBytes) 0
attr interpolationmode none
attr recordingmode sum(packetBytes)
attr source packetDropReasonIsNoCarrier(packetDropped)
attr title "packet drops: no carrier, sum(packetBytes)"
par wirelessp2p.host5.ipv4.transportIn.channel typename "\"ned.IdealChannel\""
par wirelessp2p.host5.ipv4.up.out[0].channel typename "\"ned.IdealChannel\""
par wirelessp2p.host5.ipv4.lp.out[2].channel typename "\"ned.IdealChannel\""
par wirelessp2p.host5.ipv4.ifIn.channel typename "\"ned.IdealChannel\""
par wirelessp2p.host5.ipv4.configurator typename "\"inet.networklayer.configurator.ipv4.Ipv4NodeConfigurator\""
par wirelessp2p.host5.ipv4.configurator interfaceTableModule "\"wirelessp2p.host5.interfaceTable\""
par wirelessp2p.host5.ipv4.configurator routingTableModule "\"wirelessp2p.host5.ipv4.routingTable\""
par wirelessp2p.host5.ipv4.configurator networkConfiguratorModule "\"configurator\""
par wirelessp2p.host5.ipv4.configurator configureRoutingTable true
par wirelessp2p.host5.ipv4.routingTable typename "\"inet.networklayer.ipv4.Ipv4RoutingTable\""
par wirelessp2p.host5.ipv4.routingTable interfaceTableModule "\"wirelessp2p.host5.interfaceTable\""
par wirelessp2p.host5.ipv4.routingTable routerId "\"auto\""
par wirelessp2p.host5.ipv4.routingTable netmaskRoutes "\"*\""
par wirelessp2p.host5.ipv4.routingTable forwarding true
par wirelessp2p.host5.ipv4.routingTable multicastForwarding false
par wirelessp2p.host5.ipv4.routingTable useAdminDist false
par wirelessp2p.host5.ipv4.routingTable routingFile "\"\""
par wirelessp2p.host5.ipv4.natTable typename "\"inet.networklayer.ipv4.Ipv4NatTable\""
par wirelessp2p.host5.ipv4.natTable networkProtocolModule "\"^.ip\""
par wirelessp2p.host5.ipv4.natTable config "<config/> at content:1"
par wirelessp2p.host5.ipv4.up typename "\"inet.common.MessageDispatcher\""
par wirelessp2p.host5.ipv4.up displayStringTextFormat "\"processed %p pk (%l)\""
par wirelessp2p.host5.ipv4.up forwardServiceRegistration true
par wirelessp2p.host5.ipv4.up forwardProtocolRegistration true
par wirelessp2p.host5.ipv4.igmp typename "\"inet.networklayer.ipv4.Igmpv2\""
par wirelessp2p.host5.ipv4.igmp interfaceTableModule "\"wirelessp2p.host5.interfaceTable\""
par wirelessp2p.host5.ipv4.igmp routingTableModule "\"wirelessp2p.host5.ipv4.routingTable\""
par wirelessp2p.host5.ipv4.igmp crcMode "\"declared\""
attr enum declared,computed
par wirelessp2p.host5.ipv4.igmp enabled true
par wirelessp2p.host5.ipv4.igmp robustnessVariable 2
par wirelessp2p.host5.ipv4.igmp queryInterval 125s
attr unit s
par wirelessp2p.host5.ipv4.igmp queryResponseInterval 10s
attr unit s
par wirelessp2p.host5.ipv4.igmp groupMembershipInterval 260s
attr unit s
par wirelessp2p.host5.ipv4.igmp otherQuerierPresentInterval 255s
attr unit s
par wirelessp2p.host5.ipv4.igmp startupQueryInterval 31.25s
attr unit s
par wirelessp2p.host5.ipv4.igmp startupQueryCount 2
par wirelessp2p.host5.ipv4.igmp lastMemberQueryInterval 1s
attr unit s
par wirelessp2p.host5.ipv4.igmp lastMemberQueryCount 2
par wirelessp2p.host5.ipv4.igmp unsolicitedReportInterval 10s
attr unit s
par wirelessp2p.host5.ipv4.icmp typename "\"inet.networklayer.ipv4.Icmp\""
par wirelessp2p.host5.ipv4.icmp interfaceTableModule "\"wirelessp2p.host5.interfaceTable\""
par wirelessp2p.host5.ipv4.icmp routingTableModule "\"wirelessp2p.host5.ipv4.routingTable\""
par wirelessp2p.host5.ipv4.icmp crcMode "\"declared\""
attr enum declared,computed
attr mutable ""
par wirelessp2p.host5.ipv4.icmp quoteLength 8B
attr mutable ""
attr unit B
par wirelessp2p.host5.ipv4.mp typename "\"inet.common.MessageDispatcher\""
par wirelessp2p.host5.ipv4.mp displayStringTextFormat "\"processed %p pk (%l)\""
par wirelessp2p.host5.ipv4.mp forwardServiceRegistration true
par wirelessp2p.host5.ipv4.mp forwardProtocolRegistration true
par wirelessp2p.host5.ipv4.ip typename "\"inet.networklayer.ipv4.Ipv4\""
par wirelessp2p.host5.ipv4.ip interfaceTableModule "\"wirelessp2p.host5.interfaceTable\""
par wirelessp2p.host5.ipv4.ip routingTableModule "\"wirelessp2p.host5.ipv4.routingTable\""
par wirelessp2p.host5.ipv4.ip arpModule "\"wirelessp2p.host5.ipv4.arp\""
par wirelessp2p.host5.ipv4.ip icmpModule "\"wirelessp2p.host5.ipv4.icmp\""
par wirelessp2p.host5.ipv4.ip crcMode "\"declared\""
attr enum declared,computed
par wirelessp2p.host5.ipv4.ip timeToLive 32
par wirelessp2p.host5.ipv4.ip multicastTimeToLive 32
par wirelessp2p.host5.ipv4.ip fragmentTimeout 60s
attr unit s
par wirelessp2p.host5.ipv4.ip limitedBroadcast false
par wirelessp2p.host5.ipv4.ip directBroadcastInterfaces "\"\""
scalar wirelessp2p.host5.ipv4.ip packetDropAddressResolutionFailed:count 1259
attr interpolationmode none
attr recordingmode count
attr source packetDropReasonIsAddressResolutionFailed(packetDropped)
attr title "packet drop: address resolution failed, count"
scalar wirelessp2p.host5.ipv4.ip packetDropAddressResolutionFailed:sum(packetBytes) 1294252
attr interpolationmode none
attr recordingmode sum(packetBytes)
attr source packetDropReasonIsAddressResolutionFailed(packetDropped)
attr title "packet drop: address resolution failed, sum(packetBytes)"
scalar wirelessp2p.host5.ipv4.ip packetDropHopLimitReached:count 0
attr interpolationmode none
attr recordingmode count
attr source packetDropReasonIsHopLimitReached(packetDropped)
attr title "packet drop: hop limit reached, count"
scalar wirelessp2p.host5.ipv4.ip packetDropHopLimitReached:sum(packetBytes) 0
attr interpolationmode none
attr recordingmode sum(packetBytes)
attr source packetDropReasonIsHopLimitReached(packetDropped)
attr title "packet drop: hop limit reached, sum(packetBytes)"
scalar wirelessp2p.host5.ipv4.ip packetDropForwardingDisabled:count 0
attr interpolationmode none
attr recordingmode count
attr source packetDropReasonIsForwardingDisabled(packetDropped)
attr title "packet drop: forwarding disabled, count"
scalar wirelessp2p.host5.ipv4.ip packetDropForwardingDisabled:sum(packetBytes) 0
attr interpolationmode none
attr recordingmode sum(packetBytes)
attr source packetDropReasonIsForwardingDisabled(packetDropped)
attr title "packet drop: forwarding disabled, sum(packetBytes)"
scalar wirelessp2p.host5.ipv4.ip packetDropNoInterfaceFound:count 0
attr interpolationmode none
attr recordingmode count
attr source packetDropReasonIsNoInterfaceFound(packetDropped)
attr title "packet drop: no interface found, count"
scalar wirelessp2p.host5.ipv4.ip packetDropNoInterfaceFound:sum(packetBytes) 0
attr interpolationmode none
attr recordingmode sum(packetBytes)
attr source packetDropReasonIsNoInterfaceFound(packetDropped)
attr title "packet drop: no interface found, sum(packetBytes)"
scalar wirelessp2p.host5.ipv4.ip packetDropNoRouteFound:count 0
attr interpolationmode none
attr recordingmode count
attr source packetDropReasonIsNoRouteFound(packetDropped)
attr title "packet drop: no route found, count"
scalar wirelessp2p.host5.ipv4.ip packetDropNoRouteFound:sum(packetBytes) 0
attr interpolationmode none
attr recordingmode sum(packetBytes)
attr source packetDropReasonIsNoRouteFound(packetDropped)
attr title "packet drop: no route found, sum(packetBytes)"
scalar wirelessp2p.host5.ipv4.ip packetDropUndefined:count 0
attr interpolationmode none
attr recordingmode count
attr source packetDropReasonIsUndefined(packetDropped)
attr title "packet drop: undefined, count"
scalar wirelessp2p.host5.ipv4.ip packetDropUndefined:sum(packetBytes) 0
attr interpolationmode none
attr recordingmode sum(packetBytes)
attr source packetDropReasonIsUndefined(packetDropped)
attr title "packet drop: undefined, sum(packetBytes)"
par wirelessp2p.host5.ipv4.arp typename "\"inet.networklayer.arp.ipv4.Arp\""
par wirelessp2p.host5.ipv4.arp interfaceTableModule "\"wirelessp2p.host5.interfaceTable\""
par wirelessp2p.host5.ipv4.arp routingTableModule "\"wirelessp2p.host5.ipv4.routingTable\""
par wirelessp2p.host5.ipv4.arp retryTimeout 1s
attr unit s
par wirelessp2p.host5.ipv4.arp retryCount 3
par wirelessp2p.host5.ipv4.arp cacheTimeout 120s
attr unit s
par wirelessp2p.host5.ipv4.arp proxyArpInterfaces "\"\""
scalar wirelessp2p.host5.ipv4.arp arpReplySent:count 0
attr recordingmode count
attr source arpReplySent
attr title "ARP replies sent, count"
scalar wirelessp2p.host5.ipv4.arp arpReplySent:sum(packetBytes) 0
attr recordingmode sum(packetBytes)
attr source arpReplySent
attr title "ARP replies sent, sum(packetBytes)"
scalar wirelessp2p.host5.ipv4.arp arpRequestSent:count 80
attr recordingmode count
attr source arpRequestSent
attr title "ARP request sent, count"
scalar wirelessp2p.host5.ipv4.arp arpRequestSent:sum(packetBytes) 2240
attr recordingmode sum(packetBytes)
attr source arpRequestSent
attr title "ARP request sent, sum(packetBytes)"
scalar wirelessp2p.host5.ipv4.arp arpResolutionFailed:count 24
attr recordingmode count
attr title "ARP failed resolutions, count"
scalar wirelessp2p.host5.ipv4.arp arpResolutionCompleted:count 0
attr recordingmode count
attr title "ARP completed resolutions, count"
scalar wirelessp2p.host5.ipv4.arp arpResolutionInitiated:count 28
attr recordingmode count
attr title "ARP initiated resolutions, count"
par wirelessp2p.host5.ipv4.lp typename "\"inet.common.MessageDispatcher\""
par wirelessp2p.host5.ipv4.lp displayStringTextFormat "\"processed %p pk (%l)\""
par wirelessp2p.host5.ipv4.lp forwardServiceRegistration true
par wirelessp2p.host5.ipv4.lp forwardProtocolRegistration true
par wirelessp2p.host5.ipv4 typename "\"inet.networklayer.ipv4.Ipv4NetworkLayer\""
par wirelessp2p.host5.ipv4 forwarding true
par wirelessp2p.host5.ipv4 multicastForwarding false
par wirelessp2p.host5.ipv4 interfaceTableModule "\"wirelessp2p.host5.interfaceTable\""
par wirelessp2p.host5.ipv4 displayStringTextFormat "\"%i\""
par wirelessp2p.host5.nl typename "\"inet.common.MessageDispatcher\""
par wirelessp2p.host5.nl displayStringTextFormat "\"processed %p pk (%l)\""
par wirelessp2p.host5.nl forwardServiceRegistration true
par wirelessp2p.host5.nl forwardProtocolRegistration true
par wirelessp2p.host5.udp typename "\"inet.transportlayer.udp.Udp\""
par wirelessp2p.host5.udp interfaceTableModule "\"wirelessp2p.host5.interfaceTable\""
par wirelessp2p.host5.udp icmpModule "\"^.ipv4.icmp\""
par wirelessp2p.host5.udp icmpv6Module "\"^.ipv6.icmpv6\""
par wirelessp2p.host5.udp crcMode "\"declared\""
attr enum disabled,declared,computed
par wirelessp2p.host5.udp defaultMulticastLoop true
scalar wirelessp2p.host5.udp packetReceived:count 323
attr interpolationmode none
attr recordingmode count
attr source packetReceived
attr title "packets received, count"
scalar wirelessp2p.host5.udp packetReceived:sum(packetBytes) 325584
attr interpolationmode none
attr recordingmode sum(packetBytes)
attr source packetReceived
attr title "packets received, sum(packetBytes)"
scalar wirelessp2p.host5.udp packetSent:count 1694
attr interpolationmode none
attr recordingmode count
attr source packetSent
attr title "packets sent, count"
scalar wirelessp2p.host5.udp packetSent:sum(packetBytes) 1707552
attr interpolationmode none
attr recordingmode sum(packetBytes)
attr source packetSent
attr title "packets sent, sum(packetBytes)"
scalar wirelessp2p.host5.udp passedUpPk:count 323
attr interpolationmode none
attr recordingmode count
attr source packetSentToUpper
attr title "packets passed up, count"
scalar wirelessp2p.host5.udp droppedPkWrongPort:count 0
attr interpolationmode none
attr recordingmode count
attr source packetDropReasonIsNoPortFound(packetDropped)
attr title "packets dropped (wrong port), count"
scalar wirelessp2p.host5.udp droppedPkBadChecksum:count 0
attr interpolationmode none
attr recordingmode count
attr source packetDropReasonIsIncorrectlyReceived(packetDropped)
attr title "packets dropped (checksum error), count"
par wirelessp2p.host5.tcp typename "\"inet.transportlayer.tcp.Tcp\""
par wirelessp2p.host5.tcp crcMode "\"declared\""
attr enum declared,computed
par wirelessp2p.host5.tcp advertisedWindow 7504
par wirelessp2p.host5.tcp delayedAcksEnabled false
par wirelessp2p.host5.tcp nagleEnabled true
par wirelessp2p.host5.tcp limitedTransmitEnabled false
par wirelessp2p.host5.tcp increasedIWEnabled false
par wirelessp2p.host5.tcp sackSupport false
par wirelessp2p.host5.tcp windowScalingSupport false
par wirelessp2p.host5.tcp windowScalingFactor -1
par wirelessp2p.host5.tcp timestampSupport false
par wirelessp2p.host5.tcp mss 536
par wirelessp2p.host5.tcp msl 120s
attr unit s
par wirelessp2p.host5.tcp tcpAlgorithmClass "\"TcpReno\""
attr enum TcpVegas,TcpWestwood,TcpNewReno,TcpReno,TcpTahoe,TcpNoCongestionControl
par wirelessp2p.host5.tcp useDataNotification false
par wirelessp2p.host5.tcp dupthresh 3
par wirelessp2p.host5.tcp initialSsthresh 4294967295
par wirelessp2p.host5.tcp stopOperationExtraTime 0s
attr unit s
par wirelessp2p.host5.tcp stopOperationTimeout 2s
attr unit s
par wirelessp2p.host5.tcp ecnWillingness false
par wirelessp2p.host5.tcp dctcpGamma 0.0625
par wirelessp2p.host5.tn typename "\"inet.common.MessageDispatcher\""
par wirelessp2p.host5.tn displayStringTextFormat "\"processed %p pk (%l)\""
par wirelessp2p.host5.tn forwardServiceRegistration true
par wirelessp2p.host5.tn forwardProtocolRegistration true
par wirelessp2p.host5.app[0] typename "\"inet.applications.udpapp.UdpBasicApp\""
par wirelessp2p.host5.app[0] interfaceTableModule "\"wirelessp2p.host5.interfaceTable\""
par wirelessp2p.host5.app[0] clockModule "\"\""
par wirelessp2p.host5.app[0] localPort -1
par wirelessp2p.host5.app[0] destAddresses "\"host1 host2 host3 host4 host5\""
par wirelessp2p.host5.app[0] localAddress "\"\""
par wirelessp2p.host5.app[0] packetName "\"UDPData\""
par wirelessp2p.host5.app[0] destPort 5000
par wirelessp2p.host5.app[0] messageLength 1000B
attr unit B
par wirelessp2p.host5.app[0] startTime 0.00779336s
attr unit s
par wirelessp2p.host5.app[0] stopTime -1s
attr unit s
par wirelessp2p.host5.app[0] sendInterval exponential(12ms)
attr unit s
par wirelessp2p.host5.app[0] timeToLive -1
par wirelessp2p.host5.app[0] dontFragment false
par wirelessp2p.host5.app[0] dscp -1
par wirelessp2p.host5.app[0] tos -1
par wirelessp2p.host5.app[0] multicastInterface "\"\""
par wirelessp2p.host5.app[0] receiveBroadcast false
par wirelessp2p.host5.app[0] joinLocalMulticastGroups false
par wirelessp2p.host5.app[0] stopOperationExtraTime -1s
attr unit s
par wirelessp2p.host5.app[0] stopOperationTimeout 2s
attr unit s
scalar wirelessp2p.host5.app[0] "packets sent" 1694
scalar wirelessp2p.host5.app[0] "packets received" 0
scalar wirelessp2p.host5.app[0] packetReceived:count 0
attr interpolationmode none
attr recordingmode count
attr source packetReceived
attr title "packets received, count"
scalar wirelessp2p.host5.app[0] packetReceived:sum(packetBytes) 0
attr interpolationmode none
attr recordingmode sum(packetBytes)
attr source packetReceived
attr title "packets received, sum(packetBytes)"
statistic wirelessp2p.host5.app[0] rcvdPkLifetime:stats
field count 0
field mean nan
field stddev nan
field min nan
field max nan
field sum 0
field sqrsum 0
attr interpolationmode none
attr recordingmode stats
attr source dataAge(packetReceived)
attr title "received packet lifetime"
attr unit s
scalar wirelessp2p.host5.app[0] packetSent:count 1694
attr interpolationmode none
attr recordingmode count
attr source packetSent
attr title "packets sent, count"
scalar wirelessp2p.host5.app[0] packetSent:sum(packetBytes) 1694000
attr interpolationmode none
attr recordingmode sum(packetBytes)
attr source packetSent
attr title "packets sent, sum(packetBytes)"
par wirelessp2p.host5.app[1] typename "\"inet.applications.udpapp.UdpSink\""
par wirelessp2p.host5.app[1] interfaceTableModule "\"wirelessp2p.host5.interfaceTable\""
par wirelessp2p.host5.app[1] startTime 0s
attr unit s
par wirelessp2p.host5.app[1] stopTime -1s
attr unit s
par wirelessp2p.host5.app[1] localPort 5000
par wirelessp2p.host5.app[1] receiveBroadcast false
par wirelessp2p.host5.app[1] multicastGroup "\"\""
par wirelessp2p.host5.app[1] multicastSources "\"\""
par wirelessp2p.host5.app[1] stopOperationExtraTime -1s
attr unit s
par wirelessp2p.host5.app[1] stopOperationTimeout 2s
attr unit s
scalar wirelessp2p.host5.app[1] packetReceived:count 323
attr interpolationmode none
attr recordingmode count
attr source packetReceived
attr title "packets received, count"
scalar wirelessp2p.host5.app[1] packetReceived:sum(packetBytes) 323000
attr interpolationmode none
attr recordingmode sum(packetBytes)
attr source packetReceived
attr title "packets received, sum(packetBytes)"
statistic wirelessp2p.host5.app[1] endToEndDelay:histogram
field count 323
field mean 0
field stddev 0
field min 0
field max 0
field sum 0
field sqrsum 0
attr interpolationmode none
attr recordingmode histogram
attr source dataAge(packetReceived)
attr title "end-to-end delay"
attr unit s
bin	-inf	0
bin	-0.5	0
bin	-0.48	0
bin	-0.46	0
bin	-0.44	0
bin	-0.42	0
bin	-0.4	0
bin	-0.38	0
bin	-0.36	0
bin	-0.34	0
bin	-0.32	0
bin	-0.3	0
bin	-0.28	0
bin	-0.26	0
bin	-0.24	0
bin	-0.22	0
bin	-0.2	0
bin	-0.18	0
bin	-0.16	0
bin	-0.14	0
bin	-0.12	0
bin	-0.1	0
bin	-0.08	0
bin	-0.06	0
bin	-0.04	0
bin	-0.02	0
bin	0	323
bin	0.02	0
bin	0.04	0
bin	0.06	0
bin	0.08	0
bin	0.1	0
bin	0.12	0
bin	0.14	0
bin	0.16	0
bin	0.18	0
bin	0.2	0
bin	0.22	0
bin	0.24	0
bin	0.26	0
bin	0.28	0
bin	0.3	0
bin	0.32	0
bin	0.34	0
bin	0.36	0
bin	0.38	0
bin	0.4	0
bin	0.42	0
bin	0.44	0
bin	0.46	0
bin	0.48	0
bin	0.5	0
par wirelessp2p.host5.at typename "\"inet.common.MessageDispatcher\""
par wirelessp2p.host5.at displayStringTextFormat "\"processed %p pk (%l)\""
par wirelessp2p.host5.at forwardServiceRegistration true
par wirelessp2p.host5.at forwardProtocolRegistration true
par wirelessp2p.host5 typename "\"inet.node.inet.WirelessHost\""
par wirelessp2p.host5 hasStatus false
par wirelessp2p.host5 osgModel "\"\""
par wirelessp2p.host5 osgModelColor "\"\""
par wirelessp2p.host5 canvasImage "\"\""
par wirelessp2p.host5 canvasImageColor "\"\""
par wirelessp2p.host5 recordPcap false
par wirelessp2p.host5 numPcapRecorders 0
par wirelessp2p.host5 numLoInterfaces 1
par wirelessp2p.host5 numWlanInterfaces 1
par wirelessp2p.host5 numEthInterfaces 0
par wirelessp2p.host5 numPppInterfaces 0
par wirelessp2p.host5 numTunInterfaces 0
par wirelessp2p.host5 numVirtInterfaces 0
par wirelessp2p.host5 fcsMode "\"declared\""
attr enum declared,computed
par wirelessp2p.host5 hasIpv4 true
par wirelessp2p.host5 hasIpv6 false
par wirelessp2p.host5 hasGn false
par wirelessp2p.host5 forwarding true
par wirelessp2p.host5 multicastForwarding false
par wirelessp2p.host5 hasUdp true
par wirelessp2p.host5 hasTcp true
par wirelessp2p.host5 hasSctp false
par wirelessp2p.host5 numApps 2
par wirelessp2p typename "\"wirelessp2p.simulations.wirelessp2p\""

